7
XYZ coordinates of 7 points
Na 4.3793691854010275 1.5136650583714606 0.0
Na 5.367544788816896 2.1870621176536202 2.882518883061059
Na 6.575688955161411 0.07679099343331208 1.2684067663333345
Na 3.8355353153289435 0.0 2.235583895461878
Na 4.181140709579256 3.992660785890915 1.181921804030776
Na 2.2939497745634028 2.2745550282022786 2.2065407885365493
Na 0.0 0.6746640826756946 1.3665923611544277
