7
XYZ coordinates of 7 points
Na 3.5076392353875296 4.6781722213448464 2.7736785372786508
Na 3.1013598102209237 3.6095844531386083 0.0
Na 7.464098381306071 1.9707621811141152 1.3957940467023227
Na 4.537494173791117 1.9562275599087835 2.0522427059215698
Na 0.9292172942081671 5.194140311923384 1.3325019318309923
Na 1.583214892949984 2.429070362220191 2.300734148262155
Na 0.0 0.0 1.5251102517141262
