7
XYZ coordinates of 7 points
Na 6.6315336724434655 2.7286165686954718 0.0
Na 7.497185616605011 0.0 0.9088158551673022
Na 8.069215618100511 1.1005720086690989 3.6424496963211808
Na 7.5099910818986055 3.8705966868284363 2.6311914869358555
Na 4.59257208858331 3.734384942421027 1.9541083913359092
Na 2.845662063984665 1.4249243715519226 2.7357622939373814
Na 0.0 1.6980946329281323 1.8323069583689566
