7
XYZ coordinates of 7 points
Na 2.160723327953038 1.4333034467284693 3.228292902661093
Na 2.603281099663259 0.09310362708573117 0.4950813030239064
Na 4.776358299699312 1.3484238540992257 1.9622255041547216
Na 2.862309461023349 3.1560419464799776 0.7236348463152579
Na 0.18889243205714779 3.1659364954054796 2.2993048635332167
Na 0.2955734253618514 1.6047049509995808 0.0
Na 0.0 0.0 2.2322254090032523
