7
XYZ coordinates of 7 points
Na 2.7263771555449754 4.493458423810647 1.372515844344179
Na 3.933807052761866 0.0 1.6109880331255502
Na 5.2860188857512025 2.77352685530532 1.5203430637676214
Na 2.973011993031625 2.2379926694688734 3.1666455746339137
Na 2.5253442631528378 1.9388893181114 0.0
Na 0.8552511333428606 0.1984338739933138 1.6171337659772123
Na 0.0 3.1349018465546186 1.7722605967067309
