7
XYZ coordinates of 7 points
Na 1.1117789336468775 2.139936113477365 1.7128375822469204
Na 7.713139986564017 3.38577176337152 0.22135080651218614
Na 2.376973413033382 0.0 0.03371471283398808
Na 3.8263787700333145 1.0738025323953275 2.422672106914505
Na 5.010293756139353 3.6714092035187456 1.4860817477464958
Na 2.2918017934400603 4.897136984414938 1.8487816373160095
Na 0.0 4.336622705000048 0.0
