7
XYZ coordinates of 7 points
Na 2.8322675973787637 3.1845520665246614 2.212290405835337
Na 0.9745710110430772 1.5934191538883127 3.4578905264446274
Na 0.005415253153108646 3.119094728638203 0.9650114770484423
Na 0.0 0.07002536849261753 0.9651336941247834
Na 2.831217887935105 0.0 2.211400143659602
Na 2.5020281228360606 1.5925725891471991 0.0
Na 5.068968540170495 1.5924089681567262 1.3237954933420175
