7
XYZ coordinates of 7 points
Na 4.297034036705307 0.0490550611821573 2.046377580282565
Na 0.0 4.227885271939189 1.8960361397201055
Na 0.03979776715724259 0.0 1.882675754583901
Na 2.1561956698470954 2.1350956794125704 1.7763964575726878
Na 4.567317810625485 2.220198463862644 0.0
Na 4.297283377998658 4.185129071833271 2.2457046569390533
Na 3.831561208068997 2.01503657808127 4.260737339199869
