7
XYZ coordinates of 7 points
Na 2.7858704517280097 2.043936029177263 0.0
Na 2.785087429910797 2.0440194573006822 3.422605675121899
Na 4.770551473887064 0.6137652559541863 1.711800160619704
Na 2.048124311005222 0.0 1.7110106818112278
Na 4.5539756030192065 3.7338116092654117 1.7117202538615919
Na 1.7709206243342825 3.9526483429327888 1.7109389221118527
Na 0.0 1.944478691955405 1.7116765172867732
