7
XYZ coordinates of 7 points
Na 0.25739442223825115 2.616073123748409 0.0
Na 5.299254650537112 1.3200943549784583 2.48137782498451
Na 5.207520224231531 3.7520414185242488 0.7283894499973174
Na 2.6582987228247252 2.5784700705196495 1.7997453120749058
Na 0.44820533422567643 4.551476724906564 2.279704734123634
Na 0.0 1.6390641782719895 2.822746321756426
Na 1.4851615512006497 0.0 0.7989391093847134
