7
XYZ coordinates of 7 points
Na 4.186807882196944 4.06396156908644 1.7581845042853061
Na 4.367588128536617 1.637782101116152 0.0
Na 6.820197673346777 2.6953921406440253 1.355621679101401
Na 4.672454292187183 1.359555302759353 2.967062950561303
Na 2.3961623749345025 0.0 1.5614357203638547
Na 0.0 1.8099533538780175 1.4848052027566974
Na 1.2302209163153583 4.548175499312215 1.5543834226142583
