7
XYZ coordinates of 7 points
Na 2.580193535552109 3.637933502152308 2.533216808405027
Na 4.147202034862134 3.971087418484588 0.0
Na 7.062405138854497 4.2713398107555 0.632624100158557
Na 5.342653836930016 2.478367471687945 2.3056593953150597
Na 4.294844413756479 0.0 0.9652383915672758
Na 2.040069159606781 1.835662450991859 0.2033487507784862
Na 0.0 3.8725203965035493 1.023814064771632
