7
XYZ coordinates of 7 points
Na 2.875238685771335 0.7003862569681278 2.628169316798408
Na 3.03718415034106 2.1374839366536467 0.0
Na 5.171083078752047 0.17645022962274903 0.7712726424720936
Na 4.965390785645844 2.8054585337430624 2.195519362880644
Na 2.085310110163479 3.5924201627224437 2.436183986381267
Na 0.09559884894818327 2.5224082564140464 0.46061159088927894
Na 0.0 0.0 2.0950490801974135
