7
XYZ coordinates of 7 points
Na 7.367685461025159 3.9941036799324445 1.1178905296327064
Na 4.41134847459894 0.0 0.0
Na 9.098221705122022 1.8404577788556833 2.2887173945720014
Na 6.709845362145675 0.9726172492485946 3.8814746829368976
Na 4.980808870280482 2.311948322720266 1.8230780647254277
Na 2.2776258667509635 3.603846454216707 1.9398171824993502
Na 0.0 1.8256113650979102 2.730282526973357
