7
XYZ coordinates of 7 points
Na 3.819547264148095 0.988525592723908 3.0499196975778053
Na 3.00806962213597 0.0 0.3416848539985753
Na 0.9430516583458447 0.36053924340507015 2.4732985312741835
Na 0.0 2.5867293850561026 0.6908967570693286
Na 5.493472636398987 1.6119708010497107 0.6329622043727606
Na 2.897581361631931 2.9834039251694984 0.0
Na 3.3244534734700926 3.9445081386597067 2.8201732232699412
