7
XYZ coordinates of 7 points
Na 5.094795513061449 2.132869873023165 0.0
Na 5.591123420764801 1.9186135635216204 2.941592864992825
Na 6.590144386650254 4.309105104535172 1.4262195003705767
Na 3.9412499144303004 5.690778110690727 1.7377536873098105
Na 3.7276080323836713 0.0 1.5954964807040102
Na 2.922695032944292 2.8682009721329695 1.9393017779614583
Na 0.0 3.3771503867417145 1.4897828899504073
