7
XYZ coordinates of 7 points
Na 2.956226842793692 2.8772646387049745 1.1669445435593462
Na 5.34889753947333 3.158677811163302 2.958987599482229
Na 5.666831798940505 3.4464934745114473 0.0
Na 6.314621371221474 0.8317022753577987 1.3279075360365196
Na 3.5404868944197467 0.0 0.5232978148949474
Na 1.0575517783648318 0.7287136407062684 2.0345183603275663
Na 0.0 3.2905695225907956 0.8961172860570903
