7
XYZ coordinates of 7 points
Na 3.637107796450209 0.0 0.7813508702101708
Na 6.625222085289033 0.11236921660767374 0.5087254089184403
Na 8.449126465762934 1.5896386097224433 2.375404393992577
Na 6.576152923601726 3.109677706606664 0.5989218325384316
Na 3.605955381400959 2.944438917052052 0.19155774796223968
Na 1.075622791859679 1.3444366253480329 0.0
Na 0.0 1.804708494917713 2.7641897816876755
