7
XYZ coordinates of 7 points
Na 2.5390443120767903 1.6474007129155837 0.0
Na 2.5379488360189435 1.6482708728131916 3.2562821260087174
Na 5.073031709383268 2.410123427461096 1.6289083810420415
Na 3.9265862316061106 0.005351812267595402 1.6289872043135092
Na 2.5340105692016652 3.6515575916011183 1.6275405943472405
Na 1.1588179770291307 0.0 1.6280233906042438
Na 0.0 2.4028596830630162 1.628732269828154
