7
XYZ coordinates of 7 points
Na 4.8208873431511226 0.0 0.016219497919290837
Na 4.6064985700089425 3.8806369122392734 2.903542621085105
Na 0.0 2.1561816954551385 1.3335073394091104
Na 2.9813398327660314 2.125342804533674 1.0798080278280227
Na 5.239662446759186 3.7932872550719856 0.0
Na 4.18776989615299 0.07216074697964292 2.920253063322243
Na 6.444012264939063 1.7477541205855487 1.8476284199817958
