7
XYZ coordinates of 7 points
Na 2.2494593492984425 0.9573163666199681 1.9705885265228877
Na 6.242893167285848 5.0544494987646 1.550306914927944
Na 0.0 2.0096653334824435 0.2881851539359553
Na 1.8870717863783146 3.9088585757522853 1.637093556439249
Na 4.537075138000451 2.6445079923106647 0.9984943692695124
Na 5.071652350014186 0.0 2.311907112960662
Na 6.756473926101927 0.8866020935515501 0.0
