7
XYZ coordinates of 7 points
Na 4.678094794545963 3.0453374490387977 2.545192174502327
Na 4.18813307701602 2.1319928170052154 0.0
Na 2.555732973424811 1.455423964200111 3.318222482719307
Na 0.0 1.3774825283644754 1.9843514095207024
Na 1.9301578780538542 3.299214779792926 1.0453227172534323
Na 2.2207527826475153 0.2561071740012287 0.5315878387951014
Na 4.903713513483849 0.0 2.0136645189607743
