7
XYZ coordinates of 7 points
Na 2.4658045348912467 3.109992017519659 2.1335796796839586
Na 5.533919199382927 3.072831327523137 1.7867388548081968
Na 3.788359604137196 1.502248444172103 0.0
Na 4.200537787324935 1.7656598870938534 3.732395563096183
Na 5.359050435401378 0.0 2.0281438981545987
Na 2.3133735611407653 0.07042875132826443 2.209958587818417
Na 0.0 1.7044203691172444 1.9571257742855943
