7
XYZ coordinates of 7 points
Na 1.923809549868749 0.0 0.0
Na 2.0600939068055086 5.421246727374887 0.7418556669585852
Na 0.0 3.393991625381703 1.4785334427618284
Na 2.4593650297636382 0.13712733782101683 2.9387843244767087
Na 2.882436677139262 2.571838495596685 1.23098445779048
Na 5.5804550284616745 1.9339308018280867 0.06636084816037419
Na 5.379247263022654 3.7438107022390263 2.432584904738826
