7
XYZ coordinates of 7 points
Na 1.9660850295564685 0.14622136578609907 0.8564423916740926
Na 2.16251259465553 3.2214663290963523 1.1025842723907748
Na 4.876083749989101 3.054599065641105 2.5138689932456075
Na 4.643308741263908 0.0 2.408683818435927
Na 0.0 1.7182740204263316 2.196293629307217
Na 2.545962716713528 1.4142907609244133 3.44808909628734
Na 4.08576421625504 1.625547435922563 0.0
