7
XYZ coordinates of 7 points
Na 3.74796931158495 0.0 1.714913107333238
Na 5.350366846036117 3.8807128706859646 2.115390487285967
Na 0.0 2.072306958358886 2.0132545345679542
Na 2.7808670631809282 2.685632501043762 1.764860094298946
Na 6.313561793482711 1.195976863076986 2.0655862101387847
Na 4.671584121806171 2.0876048436753822 0.0
Na 4.426919433316198 1.7928459263121177 3.8282342060506847
