7
XYZ coordinates of 7 points
Na 1.8673731550146109 0.7220752280174205 0.3206232969594038
Na 3.0770577582467604 0.0 2.9577946821344128
Na 0.0 3.0434625939874422 0.0
Na 1.4641518530224344 4.1522347669813096 2.36655267355518
Na 6.162137466139635 1.2527383391348337 0.12044888153015898
Na 3.8863119098351033 2.544817110784768 1.5939754456506265
Na 5.319677415338296 5.165217890236653 1.264462943218293
