7
XYZ coordinates of 7 points
Na 4.574888775758083 2.888407340307272 2.806761776668256
Na 2.2477528488459733 4.539792902362622 1.8798973769864058
Na 4.5080880433529735 3.941466601856124 0.0
Na 6.273213534360501 1.6176655242319962 0.6937789500610637
Na 4.048950315447575 0.05391988769057943 1.964184169244146
Na 1.2726245516806982 0.0 0.8262695260987154
Na 0.0 2.699837337965919 1.118304731176655
