7
XYZ coordinates of 7 points
Na 2.320717923966604 2.2238454046431766 3.238615731950693
Na 2.3952859898355836 2.064506610388113 0.0
Na 0.0 1.803502545774029 1.5765538936025374
Na 2.14237787173968 0.0 1.7029304831642706
Na 1.3795183306887187 4.243645843192233 1.7500988667975221
Na 4.475337687366729 1.2777393918121214 1.795251814335031
Na 3.972904690065793 3.7783104953277498 1.49493789898129
