7
XYZ coordinates of 7 points
Na 2.475127289622204 2.6917904739305296 0.0
Na 2.353934939795259 0.0 1.3012913335194325
Na 0.0 1.8520652763691425 1.464621020590147
Na 2.506306333744187 2.4662271027604645 2.9887095936909636
Na 7.484070672889464 0.06882540111323987 1.4489551380745431
Na 4.897642021760409 1.5983090437542131 1.3961290765176029
Na 6.35357702225102 4.233447293259199 1.442634815181549
