7
XYZ coordinates of 7 points
Na 2.673693797145574 4.03099395290283 2.2305470054067156
Na 2.443572824347854 2.4327853224955054 0.0
Na 6.933948674462737 2.0964210433431467 1.6366949494125334
Na 4.159938963985093 1.3174579614322168 1.8777152254459444
Na 0.0 2.7487062460970604 1.282312394374446
Na 1.3976741015680432 0.0 1.4606455676008199
Na 1.7143745963282981 1.8017775139404093 3.5701911034470455
