7
XYZ coordinates of 7 points
Na 2.6910995487972453 2.2142191088297456 0.0
Na 3.768729422053183 0.0 1.3020734312075666
Na 0.0 2.2076121522391183 1.088607476169108
Na 2.2033137296481695 2.0877055185509157 2.97483976081857
Na 4.998049800730285 2.2469040327253484 2.900910490881691
Na 3.5259050243924364 4.4433412828533445 1.4511307909976647
Na 5.447554510512668 2.36052972357561 0.15574992418320283
