7
XYZ coordinates of 7 points
Na 2.912308640082581 2.6329671617887604 0.0
Na 3.1704965879901206 0.0 1.4243328037482494
Na 7.515527566029435 2.8156751557360478 0.7924103402515723
Na 4.927892933949144 2.278885169734729 2.201135550636583
Na 2.301922612650729 5.115816036296486 1.5813042180466323
Na 1.982247490050393 2.385730331811585 2.8082639432257124
Na 0.0 2.129372824476198 0.5599613579797336
