7
XYZ coordinates of 7 points
Na 4.3643513178135045 1.438727224901198 0.0
Na 2.1879354682713297 0.0 1.0654663023118283
Na 4.930426210994156 0.2850179039987463 2.506404439313213
Na 4.934019238572995 3.3672856871638492 1.9465272496977
Na 2.1448362848726448 3.078591621726625 0.4762996091610631
Na 2.625271022789809 2.2938871150217754 3.131142813616974
Na 0.0 1.735875559007646 1.9538157879558398
