7
XYZ coordinates of 7 points
Na 4.983770195165777 2.411827865778216 0.0
Na 6.2407733382813735 2.7750711927387335 2.4089536385940464
Na 0.0 1.9005298903694108 1.8770595463981414
Na 2.821944525428628 1.628009974518577 1.4962699955205028
Na 5.287935178770163 0.0 1.8873692847493058
Na 4.084783171090325 1.9876285963235127 3.9047712969630957
Na 3.7804441207869166 4.402611125196627 2.016999418979605
