7
XYZ coordinates of 7 points
Na 4.571392061243737 2.6198156896615696 1.6307255280432642
Na 0.0 3.982710760843466 0.23178661999196892
Na 1.648232285568322 2.563382166300301 2.2971414007906508
Na 2.9153543515413314 0.23016007796549642 0.8979533211860226
Na 5.904152147160099 0.0 1.0333825143743245
Na 7.0890395082504 2.5557579342470778 0.0
Na 9.301108995507114 3.8810075895513876 1.5355605372773296
