7
XYZ coordinates of 7 points
Na 4.339912825531213 2.3485820433489937 3.5012698552802797
Na 4.079388082193601 4.1069220041356305 1.3513191305228678
Na 0.0 2.093725241460027 1.8173991475296316
Na 2.774188183877005 1.2780352594440523 1.4196607062596514
Na 5.548525209351699 0.0 1.9365805093320358
Na 5.3945200896985455 2.0404797868053617 0.0
Na 6.806140183878307 2.833602482947345 2.269832470291357
