7
XYZ coordinates of 7 points
Na 3.226032376657502 2.902061240300113 0.0
Na 1.8989580455303943 4.746101072593717 1.9499770205704785
Na 0.228373713990618 3.0524021865891906 0.13499137662997557
Na 0.0 1.3495052110907741 2.597630457448366
Na 3.4505240147974736 0.0 0.718190990462048
Na 2.9111956389144056 2.056620798698521 2.8407685875457847
Na 5.5421569332354705 3.1585696544195527 1.896804605602615
