7
XYZ coordinates of 7 points
Na 2.6489026532711826 1.2729619610106024 0.0
Na 3.1074859175445733 0.8045212519613592 2.678512332788228
Na 5.372782259920863 0.6072895600509227 0.8365808096087101
Na 4.241355226343104 3.221226123194538 1.490470077195418
Na 1.4529779294880716 2.9904003338943332 2.3428547958708488
Na 0.5621529060303687 0.0 1.979672398281045
Na 0.0 2.031875048175499 0.19687018496302783
