7
XYZ coordinates of 7 points
Na 1.8863877503628697 1.3619866513401604 0.0
Na 0.0 0.0 1.8963799436778168
Na 1.8171975381627083 3.8691491128867206 1.6531585643263842
Na 2.5339692173098487 1.2401669426321953 2.914887218556043
Na 4.698154095508606 0.7807594872324969 0.8858378006897485
Na 6.579302847437849 2.9868325378885596 1.6593306311139475
Na 7.507543689462734 0.1368662551098449 1.712927621846927
