7
XYZ coordinates of 7 points
Na 2.882842735073236 0.0 1.5186389158477456
Na 0.0 4.22493135313875 2.0572611297226238
Na 1.8148908688115533 5.433966657095377 0.0
Na 2.681769115194145 2.994055847745341 1.5155287663118955
Na 5.218092334351398 1.6563544296715729 0.6324734780889174
Na 7.628134461353598 3.3555942670697227 0.0727733984540273
Na 8.332971412507327 4.6878510661033435 2.668990443000514
