7
XYZ coordinates of 7 points
Na 2.624108912450003 2.223947001496901 0.0
Na 5.240796053379308 2.709375548988705 1.4466869248692535
Na 2.613378477565275 4.892317163627429 1.4474499033834962
Na 2.6223026241731926 2.2201707382150047 2.8963010524326216
Na 4.098615323330534 0.013234811025606974 1.4465203059592135
Na 1.1664213624920312 0.0 1.4453310855709545
Na 0.0 2.690136552618583 1.4463458264485054
