7
XYZ coordinates of 7 points
Na 2.4142920242112926 2.5185453875286234 3.153526338480519
Na 2.3188431196164214 0.0 2.7117207500716685
Na 4.846286445923482 2.0741688777971024 2.339165466722945
Na 2.6151318091331577 4.2804660233763006 1.2247249823455346
Na 0.0 2.9209675415787597 2.357598388987956
Na 0.743769738078469 0.9657116574852178 0.7321861708084221
Na 3.2688826716782375 1.5712835564933547 0.0
