7
XYZ coordinates of 7 points
Na 4.685092810686843 4.0868726802890185 0.0
Na 5.2831420405875935 4.354556841014817 2.9562094593349193
Na 2.1700760537916755 0.0 1.5837557066992922
Na 4.3724303244008125 1.703909599160175 1.8287078328195627
Na 6.644525202108146 2.887357273063859 1.2634986656144611
Na 2.6838730026976143 3.9570933762730722 1.9702231334104547
Na 0.0 4.522598600060199 1.432730396439061
