7
XYZ coordinates of 7 points
Na 4.061092462925593 4.158010625778164 0.5834361235092596
Na 5.20921423424154 3.8771839175710547 3.316301962985291
Na 0.0 2.353335402172286 2.611304240736951
Na 2.9778204568408904 2.060294213513121 2.4453740248445266
Na 4.8481851423406415 0.0 3.590498803373924
Na 5.687507935517624 1.7275896520981697 1.2757391429874998
Na 3.3420199993296467 0.3431457617265983 0.0
