7
XYZ coordinates of 7 points
Na 2.9553913822227744 2.8560832533326104 1.9451709132506718
Na 1.670772105454105 1.5018917961102254 0.0
Na 5.650488820296504 1.8388501583988104 1.6304625582170247
Na 3.391981356336605 0.03657088822065513 1.8843082722293318
Na 0.0 0.0 1.5020139006896067
Na 1.2821214972811523 1.3678057136339858 3.4458914058683643
Na 0.1680723462840067 3.4145593093903335 1.6528272517960676
