7
XYZ coordinates of 7 points
Na 1.8830277353560145 1.995889684241515 3.635420708199285
Na 1.9196804082703456 2.010308035395573 0.0
Na 4.367712131545504 1.99853292536647 1.8014167705397335
Na 2.5214885953946133 4.003780948533327 1.8460796209075392
Na 2.514072277162743 0.0 1.8183209389800425
Na 0.004675225372006375 3.283287454802677 1.7827192559586016
Na 0.0 0.7272798779669544 1.8056340265902844
