7
XYZ coordinates of 7 points
Na 5.244281743187169 2.2059774627787236 0.0
Na 6.622796612738199 0.0 1.4900367389061864
Na 7.964003713724173 2.660790100344203 1.1848498408765442
Na 7.257835968690133 5.529488531282352 1.7231916177571915
Na 4.528267106879806 5.067064202223111 0.5661799959054459
Na 2.947221407056259 2.848898840711951 1.8201488418989276
Na 0.0 2.79705412070091 1.2635939361566277
