7
XYZ coordinates of 7 points
Na 2.684460342008772 0.525894209867419 2.5846967224586477
Na 1.058873326881226 0.0 0.7023830177094018
Na 0.0 2.5936933852318376 0.6679372603579178
Na 2.297244076331668 3.53697069719788 2.1791818207904448
Na 4.58700233630726 1.7641492840744724 1.4187205261571214
Na 2.4978336819383795 2.0072943253988598 0.0
Na 0.45381724445701066 1.6243437895825599 3.0578604779743928
