7
XYZ coordinates of 7 points
Na 3.2121114671220994 5.284501359671279 2.9525413587181895
Na 3.3967197097650645 0.0 2.8534325720235483
Na 0.0 2.437420857719333 1.0720085303771962
Na 2.9593723780127803 2.6577280659547227 1.5263969462106566
Na 5.675172382134232 3.771922300518746 2.161924444477794
Na 8.039326903446517 2.068457639444833 2.869039030349799
Na 7.4716081275595805 2.7248101698766822 0.0
