7
XYZ coordinates of 7 points
Na 5.598385203576354 2.557909091714409 0.9001502417736085
Na 7.866936379025094 3.0513683082071354 2.8039524111050436
Na 8.431345513222254 2.1448199672937616 0.0
Na 7.191038000993118 0.2531403884780171 1.966565562158139
Na 4.21959021176262 0.0 1.6386712166975392
Na 2.811205689218916 2.6238891438876095 2.011712495412059
Na 0.0 2.0836320131723243 1.107560973267137
