7
XYZ coordinates of 7 points
Na 2.8665179437283967 3.7973108324228835 2.60156337658556
Na 5.610001506685521 0.0 2.848349177776098
Na 0.0 2.9273786564641036 2.47733796084715
Na 1.6839330255415956 2.907061657353747 0.0
Na 4.362322379262137 1.864419478737947 0.8555801283163367
Na 6.512667357597349 3.9318449099409065 0.48800636078369347
Na 5.402689817233357 5.381519095455145 2.870925974012873
