7
XYZ coordinates of 7 points
Na 2.7765762898412634 2.784404957088051 2.2403305750313534
Na 0.0 2.71885228927256 1.115414309566455
Na 1.9567495135115038 4.787965433210177 0.17420209385313
Na 4.814587896360273 3.898952558626967 0.3431755651732314
Na 6.169986235034755 1.2345521510589803 0.6227772322584229
Na 3.4254801429402866 0.09772075871888308 1.0576419807570208
Na 0.6193564736980041 0.0 0.0
