7
XYZ coordinates of 7 points
Na 2.6647900200629646 2.0406162098758247 0.0
Na 2.1513717330153606 0.0 2.253733918441826
Na 0.0 1.6439904883615946 1.1430084589616891
Na 2.109611369163643 3.093164910954701 2.564374590817333
Na 4.8958375666443565 3.285089487653617 1.1495029408892439
Na 4.730944985390494 0.1988081319827083 0.4904952345377961
Na 4.544529641877563 1.2676396756651287 3.0718957625747594
