7
XYZ coordinates of 7 points
Na 2.4534362555968228 1.8223873190114286 3.2202830199588126
Na 3.4358121473484493 3.644048502792991 1.0306591739818645
Na 5.332012590702952 1.825558710074935 2.4429640447798153
Na 3.4384960773620925 0.0 1.0325643814026066
Na 1.2672458001957407 1.8225627466870233 0.0
Na 0.0 3.300981807507305 2.2949020421010466
Na 0.004166097337304997 0.34274597819859115 2.293790888729401
