7
XYZ coordinates of 7 points
Na 2.2000997607822335 1.6689351254687814 3.4260559814870604
Na 2.742088147992569 0.0 1.2412479162769356
Na 0.00676937920200138 0.563380597100291 1.994291093734716
Na 0.0 3.3957420446285083 1.4304447484971907
Na 2.7331496851319157 3.9674021850684715 2.1858872411105565
Na 2.1990966964665866 2.296696763993421 0.0
Na 4.595855894337566 1.987961922875214 1.7118992341555028
