7
XYZ coordinates of 7 points
Na 5.001127253115255 2.1525753842763136 3.4588394762245223
Na 4.861269370822594 4.1121714640524765 0.0
Na 6.971447879731878 2.337932102112809 1.1982418277131408
Na 5.1043543458271285 0.0 1.3847787403514984
Na 3.5975217086281157 4.680987731223514 2.660027100988578
Na 2.9825555033401026 2.119611713696279 1.2382814523230334
Na 0.0 1.831769041698511 1.3465966161345042
