7
XYZ coordinates of 7 points
Na 2.0006011549986358 1.9168749568671215 0.0
Na 4.015800527298414 3.7868438927166053 1.2186005822711294
Na 3.9522249183514653 0.0 1.243758017790777
Na 3.518599667194589 1.9160982429241913 3.504829859996781
Na 0.0 0.05094935950857182 1.2365902667041109
Na 0.5193495673823771 1.9342010660054174 3.509892798019534
Na 0.061312130313047275 3.84191520286103 1.248713213967881
