7
XYZ coordinates of 7 points
Na 2.485494995390817 0.0 1.6086649335723808
Na 2.489077693738979 2.0662501806553477 3.2164847508018073
Na 4.119858530664022 3.558840771197061 1.6081837828362469
Na 4.972655370703794 1.0069208676617618 1.6067715861562004
Na 2.487737874637786 2.0658108013131233 0.0
Na 0.0 1.0122615221867775 1.6080916509661214
Na 0.8599047222680318 3.55935165721936 1.6074919979630025
