7
XYZ coordinates of 7 points
Na 2.5512377558257153 1.9966505332234223 3.320768228644963
Na 2.551390935807567 1.9972293473573461 0.0
Na 5.017916263024232 1.0931857396119669 1.6604767046187423
Na 3.9869770789346335 3.5887797674223982 1.6608934390050138
Na 1.1909272347351194 3.6768884156062356 1.6606000203105062
Na 2.3618861161572307 0.0 1.6604123522176994
Na 0.0 1.2674564376351687 1.6605546460724614
