7
XYZ coordinates of 7 points
Na 3.381921357380577 1.9001303769832494 0.11441139383552695
Na 0.6262013315229679 2.2697144659257047 0.0
Na 5.718805039239639 2.175346712744922 1.8109982995390916
Na 3.007855885102121 2.110253853127645 2.840728643096322
Na 1.5384193973006808 0.0 1.7711574008522075
Na 2.1285562211184343 4.401872278893924 1.516281628709046
Na 0.0 2.5089131767713173 2.718630968644621
