7
XYZ coordinates of 7 points
Na 3.1898704265369417 0.2912555663399364 0.6873738344218283
Na 6.041167587238668 0.9347623630496926 0.0
Na 4.15306739113078 0.6531038436170322 3.509812605635895
Na 5.413167741795164 2.9835669257056736 2.0998575302868843
Na 2.8279176570733604 3.2740695671722433 0.6047856525872775
Na 0.0 2.9650967735586895 1.5387216826501038
Na 0.25268329551567537 0.0 1.2065532401657444
