7
XYZ coordinates of 7 points
Na 2.5392335173774625 1.189940005849051 0.0
Na 2.526050761189029 0.09195421238253332 2.49605006106707
Na 5.000464946908287 0.0 0.9876463008159254
Na 4.133197744100459 2.2984050115106722 2.5458144279438706
Na 2.982806768772388 3.8116025956494886 0.5952425684194361
Na 1.0801304473470923 2.6950387294326807 2.263639540300755
Na 0.0 0.27545812721810997 1.072627290333438
