7
XYZ coordinates of 7 points
Na 4.870913809966796 2.049184549562984 0.6834501001335378
Na 6.955619998682135 0.0 0.0
Na 6.830950167578122 4.291490177759012 1.0682064303378613
Na 7.234898411043689 1.672500499122921 2.4778655847654014
Na 4.456630487306534 1.4324865097779638 3.5885678657246025
Na 2.3167526556227362 0.766698422430854 1.596675718893324
Na 0.0 2.550215135717651 0.9237382552013915
