7
XYZ coordinates of 7 points
Na 3.0180351912587584 3.0054390062265 0.7296482417601794
Na 3.00513118887437 0.0029566124208880162 0.6922045962481962
Na 5.506108996788294 1.5026139318945528 0.0
Na 4.510319422020806 1.471359903272298 2.8283165067246063
Na 1.5097620478151894 1.4845390877131943 2.8266969192153537
Na 0.0 0.0 0.7017153715311061
Na 0.012149824354613759 3.003114021629277 0.7176527899130163
