7
XYZ coordinates of 7 points
Na 4.20698682324434 0.0 2.739267883848669
Na 4.352461848799796 1.1865976590947445 0.0
Na 6.803569740135533 1.1144954142575576 1.7292989007105766
Na 7.356694806608448 4.062952204969452 1.6447066089592828
Na 4.56389177140633 5.130344319344081 1.9015839717328582
Na 2.9003195155626345 2.6453668294703685 2.1864688717671674
Na 0.0 2.9576455583337733 1.4891380473776537
