7
XYZ coordinates of 7 points
Na 1.8684961957940531 1.972808468989293 3.4776887937805148
Na 1.8677736561596956 1.972960428505658 0.0
Na 0.0036064317648659694 3.5658424381029588 1.7391943377030936
Na 2.80017740878813 3.946708515318211 1.7385893485558104
Na 4.650792881062828 1.9707702573577408 1.7391676826777913
Na 2.798438506740125 0.0 1.7383940926953874
Na 0.0 0.38208875017919597 1.7392702502033468
