7
XYZ coordinates of 7 points
Na 2.868438031299016 2.851990015812368 0.002510984249723347
Na 0.0 1.9859623193098876 0.0
Na 0.9989604018123274 3.819449963501607 2.148809071792484
Na 0.34246611913352054 0.9601450773659564 2.7936632584129857
Na 2.1619124194817374 0.0 0.6058844668306098
Na 4.751248126405836 1.147275330524038 1.599818665514241
Na 7.540129194269582 2.241450482926143 1.4451053391632094
