7
XYZ coordinates of 7 points
Na 1.8078454109181512 2.237540828058479 0.0
Na 2.9564530399364797 0.0 1.6341196147305896
Na 6.9860131216604655 2.2021459574984177 1.235885450616917
Na 4.104807809064235 2.7546657089960123 1.8656681491372058
Na 0.0 0.1570677749330055 1.1916609329627765
Na 1.364973082199773 2.173956561658604 2.953333150080661
Na 0.2836760327240755 4.4592502386849375 1.329848081196706
