7
XYZ coordinates of 7 points
Na 2.152212946551818 0.0 1.9290172529006409
Na 2.866721188170331 1.5711486101001966 0.0
Na 0.0 1.533579529339878 1.930380850854013
Na 2.8772744542318076 1.554963126911694 3.8648299594173734
Na 4.686231748766923 2.7735917471332003 1.9305432038156694
Na 4.627326302720993 0.29108213493604457 1.9228654457995644
Na 2.121829142531777 3.111281088053341 1.9428286121960041
