7
XYZ coordinates of 7 points
Na 4.689366686966969 1.9340697083992295 3.6671141709532833
Na 4.492276561621336 4.233433513063353 1.7479765510792853
Na 7.153378716214473 3.852251537369422 0.4107602859156924
Na 7.323284247969312 0.8695367797278195 0.13563047255337568
Na 4.729764445137118 0.0 1.3721885236832496
Na 2.501139924570707 1.9926285357551392 1.6263505753907648
Na 0.0 2.300386569841723 0.0
