7
XYZ coordinates of 7 points
Na 0.0 6.916504428982227 1.4842810511614928
Na 1.010975690581819 4.093043352867247 1.421214982442653
Na 2.8043994525378135 0.0 2.3975123084103496
Na 2.058996347226615 1.660472024429874 0.013350904561408639
Na 3.652740124246284 4.198517349332558 0.0
Na 6.585362763698271 3.5694746782862414 0.11372794151082655
Na 7.990782316979091 5.272264611970477 2.1464104566270517
