7
XYZ coordinates of 7 points
Na 0.9731442772883039 2.287715755464549 3.596821459133499
Na 0.0 0.0 1.914607360529589
Na 0.4103829579447481 3.9670696784515282 1.1743254326885497
Na 1.7287885322662362 1.5373678235756238 0.0
Na 3.641031884669381 1.7741720482733812 2.3067062813574744
Na 6.087207736228088 3.433646688708497 1.8421862088710241
Na 6.254769624627658 0.4506701422263628 1.6902147267277674
