7
XYZ coordinates of 7 points
Na 3.827174272711795 0.0 3.93652382593612
Na 5.022803814672371 1.7334126314452287 0.0
Na 7.460095661564662 4.495273911620316 3.059829232272007
Na 5.800700563151247 2.0003583140458687 2.882500722582866
Na 2.9155997248436782 2.1821893335209452 2.0892598013682506
Na 2.0433284626688333 4.978936324656534 2.7432567156874565
Na 0.0 2.8098323316509917 2.435773236752393
