7
XYZ coordinates of 7 points
Na 0.9472314956868298 3.2504454671456324 1.7594560004141346
Na 2.1428719665900413 1.5485651929463238 3.4710149226247826
Na 0.0 0.5375763375390283 1.758279995300905
Na 2.0948430492070047 1.5649894872642478 0.0
Na 3.792580458424146 3.2719107857839713 1.720785752924569
Na 3.488871725747261 0.0 1.7091803582462402
Na 6.021551324735672 1.4154671008929465 1.7522589538635893
