7
XYZ coordinates of 7 points
Na 2.5282758785096155 2.0705441643392826 3.045823358699239
Na 4.127538995428581 0.0 1.5227144237180412
Na 5.063272963324012 2.7034602204056752 1.5235233011100715
Na 2.541291872788147 4.6901754837701555 1.5228699732028885
Na 2.5286846937122247 2.066501150652123 0.0
Na 0.0 2.7247291559064504 1.5213363378081945
Na 0.9143827688469851 0.00932418257362222 1.5257578816923643
