7
XYZ coordinates of 7 points
Na 2.4445747695223345 2.3457951644536736 0.0
Na 2.431379672597571 0.0 1.6565776658601878
Na 0.0 1.8808641517423297 1.4675447740266616
Na 1.2590964956814756 4.673404290321194 1.2630003182861835
Na 2.8082711761044195 2.4457779484060085 3.1867097423229973
Na 4.298731698060891 4.426591160138855 1.6392620501823976
Na 5.03429414210747 1.5121307891939604 1.0071152455847991
