7
XYZ coordinates of 7 points
Na 2.846728388024289 0.019000850444463757 0.791970927035911
Na 3.662159576876772 1.325281178560135 3.3718356813832324
Na 5.715633133550919 0.0 1.6505789139488205
Na 5.459584914840558 2.9806242537596574 1.6358787099869763
Na 2.9426604043813698 2.922140975094792 0.0
Na 1.3284622118357357 3.0238477397945602 2.535513633615126
Na 0.0 0.5044298429379888 1.599374974557373
