7
XYZ coordinates of 7 points
Na 2.564178571557653 3.508400552796185 1.7222444134984314
Na 1.7780462919707714 1.7512007757828907 3.440807781840361
Na 0.0 0.43267466479598743 1.7182442466927097
Na 2.5594552204098946 0.0 1.7164775344009806
Na 4.4916046724528655 1.752872698277676 1.7192860616943089
Na 1.7777899796608883 1.7588195157530522 0.0
Na 0.004670351620169599 3.081490548108096 1.7205025766058744
