7
XYZ coordinates of 7 points
Na 2.956476091832878 2.628233270659278 0.9808695485749254
Na 3.3380117755202936 0.14061226211505434 2.631331067065312
Na 0.0 2.1043949161443956 0.9626924486684287
Na 1.9104226983721952 0.0 0.0
Na 4.8677697018167905 0.5068127608257311 0.07914959441764108
Na 5.904766963818551 3.189945132616594 0.9343004846379064
Na 7.72241187365147 0.8048944101764702 0.954412801481429
