7
XYZ coordinates of 7 points
Na 4.6626885892094245 2.3348179759556222 0.0
Na 4.4770882631233295 4.878924732040623 1.5856414104288392
Na 7.590399131662639 2.114974941791412 0.6366779555910471
Na 5.568957783086834 2.381421322306235 2.8454882468607794
Na 4.076221291622045 0.0 1.7960117404758504
Na 2.6422140102775242 2.595142094291596 2.202495984953994
Na 0.0 2.3162545406136354 0.8045856498868705
