7
XYZ coordinates of 7 points
Na 7.029601354487024 0.0 0.23646983664600713
Na 9.97568938469071 0.46987950862955474 0.5526427843485295
Na 9.978235282501867 3.4719064956865617 0.6295965381996991
Na 7.218195743526625 4.549014377877059 0.15201778745289626
Na 5.177305935432697 2.3515619297437214 0.025302145852547114
Na 2.5658710173606387 2.3115803912892 1.4949909304954847
Na 0.0 1.9112419783883503 0.0
