7
XYZ coordinates of 7 points
Na 2.6051718361916603 0.089471758966154 1.204609761943976
Na 4.125382925944219 2.0993078889701926 0.0
Na 0.0 1.195433853516803 1.6580794259322467
Na 2.341684004938059 2.7766183191894624 2.1426559144192683
Na 5.196037215948305 2.6946769514440563 2.3583504288851582
Na 3.691104917616116 0.6787959370022092 3.5624886828530697
Na 5.463254999075932 0.0 1.4173536498647443
