7
XYZ coordinates of 7 points
Na 2.1819963644872344 1.9474625200011113 0.0
Na 3.5947545304839066 0.46190061730493376 2.1947649143168673
Na 5.176588855436455 1.9475984424352761 0.12822789854142408
Na 3.5962333918541574 3.442606153805331 2.191566714584255
Na 0.006150909532806725 3.904950799156168 0.7004028636737233
Na 1.0420447602384604 1.9520196611437413 2.7412115702478075
Na 0.0 0.0 0.7033389413024828
