7
XYZ coordinates of 7 points
Na 7.381321865199947 4.503130782267578 2.37019997655407
Na 11.154885075372952 3.503494973936537 0.0
Na 8.72623664790991 2.1365982315496104 1.1084512505578497
Na 6.6901210374891384 0.0 1.6475877725447385
Na 4.181892622964553 1.1332699798581454 0.4538920178707887
Na 2.8069954441472493 3.795628143051267 0.305668663672054
Na 0.0 3.1125499999690653 1.115066138750688
