7
XYZ coordinates of 7 points
Na 4.191704936042996 0.9101663261216489 1.770310020865752
Na 3.700652242237366 2.6199373154315597 4.186026355314499
Na 6.3307906599153485 2.035836214838129 0.0
Na 4.604798778351147 3.877402498669693 1.618373797185098
Na 1.9328126411799065 4.8340803631386144 0.628044157030546
Na 0.0 2.615516150220684 1.222819565429107
Na 1.4485059105839881 0.0 0.970170259828899
