7
XYZ coordinates of 7 points
Na 1.693196492839149 3.448543242856224 1.9687858657944104
Na 3.7190661122664928 1.8308644296841947 3.1151961455975856
Na 4.996468851214291 0.4467081380396253 0.9476887161046399
Na 2.559741393107698 1.6095832506657584 0.0
Na 0.0 1.408403129639256 1.1425823485376474
Na 2.1606107438290323 0.0 2.1671450555194998
Na 4.2680698055513755 3.4934429751002 1.0344379478749064
