7
XYZ coordinates of 7 points
Na 2.5568015356060227 0.0 2.2191740726414064
Na 3.5352942788520783 1.7649818957252534 0.0
Na 6.983286720144427 3.0643366976075868 3.2331219223771717
Na 4.058933519387782 2.5199058393603164 2.852516161855668
Na 0.0 0.697253310251964 3.623939376053176
Na 1.270779704799575 2.6664151745035114 1.7482157502737838
Na 0.42374325040386396 5.489419516277953 2.3224143604652503
