7
XYZ coordinates of 7 points
Na 2.839091402691804 0.9681653867408186 0.21393458721768632
Na 5.092575771816253 2.690897632824045 1.201888084501364
Na 5.672080735385187 0.0 0.015323656738695957
Na 4.336458865765815 0.20031147491801687 2.6931703641912454
Na 1.3312513255508194 0.17434622344678113 2.682495290285549
Na 0.599373743838478 2.6935709502483642 1.2246906557019313
Na 0.0 0.02494445222610847 0.0
