7
XYZ coordinates of 7 points
Na 2.384891642881888 0.19759952429545463 2.503636610755931
Na 2.045783567849233 3.2959074455807094 2.0125445733789986
Na 0.0 1.34375941587906 1.2410847802358584
Na 2.6497628227461867 1.4550037774417486 0.0
Na 4.279372768620561 2.146892069109196 3.236771034517644
Na 4.8798892546540635 3.0542116636866963 0.6362369730988728
Na 5.174954754952127 0.0 1.142418720350699
