7
XYZ coordinates of 7 points
Na 2.875089589037754 2.581927704002798 1.4444841772630244
Na 0.0 3.421268780171438 1.3244892024376875
Na 2.1045114273830734 5.097600417882532 0.0
Na 4.950379543717504 4.657647363176288 0.8404312496517423
Na 5.763681391299494 1.7973727822694943 1.2312635087583308
Na 3.6319509762422117 0.0 0.11997523326081352
Na 0.7557343541535749 0.5699607696130525 0.7642653260600132
