7
XYZ coordinates of 7 points
Na 2.983269031074617 2.810115931515509 1.2301080547858758
Na 1.2638689796553955 1.0457173934626975 2.931502229942737
Na 0.0 2.8864826824763625 0.9289019278820656
Na 1.5378904774201378 0.4881523340607084 0.0
Na 3.8546481943179325 0.0 1.836786869031453
Na 6.606684960587556 0.7689565238478251 0.9088402205444557
Na 5.861543167234496 3.598751429014463 1.586705132393821
