7
XYZ coordinates of 7 points
Na 2.9373361266336477 0.44053487888708964 2.6783562729935304
Na 4.8453151153572875 2.747600863563803 2.5103241032294
Na 7.74920105526958 2.0087678441986196 2.6890282611823757
Na 5.742995705891212 0.0 1.7127508856494513
Na 3.782749300565755 1.4957036587435013 0.0
Na 1.9678462557218959 3.1203852622620936 1.7504999228319398
Na 0.0 1.0583010818903351 2.684556963509835
