7
XYZ coordinates of 7 points
Na 2.243914511840752 1.8099336269407735 2.7722957372228145
Na 3.988163001985293 4.243931440813501 2.520379749961675
Na 0.0 0.15260217858424102 1.6653019036827996
Na 1.2187537196054912 2.322910647061886 0.0
Na 4.167800132046604 2.0322746110280576 0.49556981228789865
Na 4.638076390593367 0.0 2.650924887045561
Na 6.85518202848378 0.7270036851968491 0.7679261201163845
