7
XYZ coordinates of 7 points
Na 4.537450605334783 2.5995393478133804 3.4943964765295408
Na 3.335947613698112 0.0 2.598375362413901
Na 0.0 4.359369971844117 1.847813323640781
Na 2.9102932904084406 3.9049761933876708 1.334470668950791
Na 3.8937752915169552 1.3994174156676622 0.0
Na 6.514000523865102 2.1029143677784083 1.2869327011111853
Na 8.190530189746587 4.506235080287693 1.8889354485316838
