7
XYZ coordinates of 7 points
Na 5.462361809010369 4.237884643982878 0.0
Na 3.7495342176322186 3.3419860484597006 4.222246319193427
Na 0.0 0.9903943742075727 2.286226349136958
Na 2.2812864191033766 0.8707221467611607 0.34912415379206546
Na 4.713244832291554 1.9234279988538603 1.7588233469107704
Na 7.015248770312425 0.0 1.8425839347604689
Na 9.662771159647173 1.3405452510414437 2.2739653896873753
