7
XYZ coordinates of 7 points
Na 0.3251989773295928 0.7191254917434897 2.3673748681961753
Na 2.5075724220221365 2.595679378232401 0.0
Na 0.0 2.942200967973049 0.996168838825593
Na 2.5346582631124237 1.722807189176022 3.1863210269291273
Na 2.364585903880888 4.100242965853679 2.2696625644819464
Na 4.767936923704426 2.1773633371477548 1.7645210146877008
Na 2.8116850500566453 0.0 0.841350120461434
