7
XYZ coordinates of 7 points
Na 1.7323531343129792 2.8117002285376422 1.6891138433401243
Na 0.0 1.0358404723225931 0.0
Na 1.1653130389772601 0.0 2.5629529823493096
Na 3.992512765650744 0.8787003054374675 2.0851283158811436
Na 6.675496381272735 1.3801501794424547 0.84495974234198
Na 9.286811192237057 2.2133355241735715 2.0664784267125227
Na 11.397968687338505 0.3936449548500816 0.9505906949304344
