7
XYZ coordinates of 7 points
Na 2.746389039403666 1.57383345912909 3.16059531725383
Na 2.1980416212150815 0.0023604540826902554 0.8404702904950327
Na 0.0 1.5749543080956894 2.0517144401253824
Na 2.2023294726950384 3.146259118001353 0.8397104267396713
Na 4.429285445757812 1.5706510718499063 0.0
Na 4.978677349413184 3.147451763338612 2.3186548561312588
Na 4.9772427316629795 0.0 2.3209345861912953
