7
XYZ coordinates of 7 points
Na 3.359393515744177 0.03770300716453856 2.710000400670386
Na 4.609571985624896 0.0 0.0
Na 0.0 3.1247427754731927 1.9730912471546913
Na 2.1760715221224145 1.6885778756304912 0.4993767189743375
Na 4.134216759812761 3.9529557512003226 0.7704184284916911
Na 5.722433244955269 1.7973122372926198 2.1345097316798203
Na 8.476335158268363 2.8812347892913603 1.6586853844470226
