7
XYZ coordinates of 7 points
Na 4.851645548733957 1.6493213585388131 2.2828538003823127
Na 7.745848915071077 1.9658375648674289 1.5686324286357087
Na 5.645819769725538 3.421196100497636 0.0
Na 3.7698150078576877 4.4453707934828826 2.1058183752426256
Na 0.7949923799983677 4.32834296301208 1.7253879555972313
Na 0.0 1.5756323566723058 0.8387910317373566
Na 2.4543508449419105 0.0 1.5441292629430585
