7
XYZ coordinates of 7 points
Na 2.4485291001201226 1.3502253364203927 0.0
Na 2.4418283399714458 3.2841940042104225 1.9098621378179133
Na 4.888344129063797 2.3997822211365696 1.9239813534373988
Na 3.874444382980304 0.0033031958374616366 1.9298946413454665
Na 2.4490592730624714 1.3750262765222403 3.848303411560797
Na 1.024883335949606 0.0 1.932465988671669
Na 0.0 2.3924279712264624 1.9229467802177425
