7
XYZ coordinates of 7 points
Na 5.253130228452088 1.9891214307640588 3.2959865884769166
Na 4.250185923019596 4.059870241444806 0.0
Na 5.854827775544339 4.7979439096716066 2.4267279179368058
Na 6.704500153628305 2.4882658929489074 0.7215137148264567
Na 5.065061096410726 0.0 1.0702196407013227
Na 2.8090283713084157 1.9212392976002175 1.5484055586278949
Na 0.0 2.952757974945351 1.7235494388796915
