7
XYZ coordinates of 7 points
Na 6.477906108659997 4.535939019841797 1.525927198427092
Na 5.901475058319615 0.0 1.2235741090462997
Na 10.381842015997215 1.9012020562922456 0.9624721173611871
Na 7.553683728441236 2.1861489298229455 0.0
Na 4.5941139808686415 2.5439362838326787 0.3171023773184547
Na 1.7895595386473457 3.5829907302589667 0.5690302819426849
Na 0.0 1.2214543915765108 1.0427496253883533
