7
XYZ coordinates of 7 points
Na 0.4381722603823971 4.480598110466072 0.6530281978301462
Na 0.37703840902256824 0.0 0.0
Na 0.0 1.6502254822740716 4.0016503718178615
Na 1.8520161235385015 2.026991452118911 1.6613484289178362
Na 4.312676897074862 3.5378757922359654 2.483206818916753
Na 4.358254581394632 1.8479275198744114 0.01676186446923622
Na 4.247097214604544 0.5570755474643525 2.7136074130531593
