7
XYZ coordinates of 7 points
Na 2.154351355310501 2.7973179013007465 0.23002651692324416
Na 3.9329866443593646 2.6817041738551843 2.640684703825488
Na 0.0 0.7228154517468857 0.0
Na 2.3262384306382007 0.2765490593721006 1.8427184290614647
Na 4.83344409458115 4.146097766877606 0.18094817784346906
Na 4.663612012384091 1.1508485305615563 0.17194164442176524
Na 7.4276846098655 0.0 0.39245742589779253
