7
XYZ coordinates of 7 points
Na 1.6763447983430158 3.5296712321238943 0.3409299632492605
Na 4.109981047901776 4.6598785826585205 1.6760435137461522
Na 6.868329388287715 0.7914911383772262 1.2031821325746865
Na 4.054881305080181 1.7731986438938954 0.872634077961664
Na 1.9238032499165318 0.0 2.040810883014993
Na 0.19438193006529636 2.3685392431957757 2.681461654029895
Na 0.0 1.0632095877892664 0.0
