7
XYZ coordinates of 7 points
Na 1.6317962861822677 2.50677026252888 0.0
Na 2.9950635398872265 4.990522634550661 0.9627558728077361
Na 0.0 4.808619553664156 1.0270478497543485
Na 0.2661270220258519 3.8209310329628954 3.853733307243122
Na 5.466585996828712 3.829388380523629 2.195184202469526
Na 2.7891490236878846 2.6000647890638047 2.7654862986832383
Na 1.8218123097106227 0.0 1.6293007281573662
