7
XYZ coordinates of 7 points
Na 2.1654208013986507 2.1548106759564805 0.0
Na 2.767335591033482 0.0 2.014237028068856
Na 6.808081303190745 2.111376378846846 1.8800607958702207
Na 4.007878611665564 2.827788759965468 1.9886866561499623
Na 1.2195657620109008 4.157628974372717 2.03598338248576
Na 1.641536420155817 1.940523320847786 3.6535939643058595
Na 0.0 1.3383246035351868 1.5265611658127023
