7
XYZ coordinates of 7 points
Na 3.2940686806643806 1.8566152793111073 2.829506555309016
Na 4.666397734354872 0.0 1.0686206983449047
Na 4.66227215792199 3.7157831909765933 1.0676413347517952
Na 2.7138194876882125 1.8556228518544495 0.0
Na 1.1458686499710766 0.30473212370038116 2.2004953667662646
Na 0.0 1.8553492134205343 0.2946082264914524
Na 1.1471873918366806 3.4105795760164517 2.1993141346400304
