7
XYZ coordinates of 7 points
Na 3.4427649006356895 2.6044853559559167 0.0
Na 2.2027545418508554 2.6049808692425778 2.7230385505258106
Na 0.531663035317623 3.269020200316975 0.3247725358302986
Na 0.0 0.7589554840469802 1.8766422882870806
Na 2.8634170888386623 0.0 1.380555927016815
Na 5.696706230638913 0.802253832954863 0.8011154407698438
Na 5.1122686146117235 3.2750869200220727 2.3995384635711483
