7
XYZ coordinates of 7 points
Na 0.0 2.9399031152721244 1.3709431039071527
Na 2.542199657984972 4.2154663482863866 0.4220923280695452
Na 0.4789936661653531 0.0 1.0222789408954591
Na 2.6415848509787443 1.7565545780693896 2.138786808703995
Na 5.608235375815141 1.7727251968880513 2.606961296618615
Na 6.609806642566333 0.6732464052001188 0.0
Na 8.158070300133202 2.8166726692300568 1.4179094308785822
