7
XYZ coordinates of 7 points
Na 5.906431536533695 2.836973586014707 0.797442143599385
Na 0.0 3.130767199685938 0.15044998991105316
Na 6.478060586836921 0.0 0.0
Na 4.0559945990740625 0.6366849326559887 1.6467725620056666
Na 2.9948124862077496 2.9681690559348137 0.081396855786046
Na 4.293951615058578 5.258857213815522 1.5209647038372212
Na 6.9044175489767055 5.575870442816203 0.08034715145519586
