7
XYZ coordinates of 7 points
Na 0.0 0.0 2.734630074869264
Na 6.338910140491496 0.17760577526318944 1.1175435406478884
Na 6.258311689976446 4.765469737483006 2.4660879597165177
Na 5.074465514086773 2.0749365840663283 3.065394032787754
Na 2.162469305253318 2.039100749816704 2.326343042659192
Na 1.3114759403790628 3.730046895285645 0.0
Na 0.9883243310180201 4.760270692613157 2.795500055740445
