7
XYZ coordinates of 7 points
Na 0.06567899909083708 2.299101152489371 1.9224599976286627
Na 6.488636070842956 1.1145826707089013 0.5404734208128761
Na 0.0 0.0 0.0
Na 2.1762242514524623 0.17103685853859507 2.049257801698092
Na 4.293176734727405 2.293569215629628 2.2087501721541543
Na 2.15229183409328 4.381421118196011 2.4961365096124535
Na 2.2427807979934546 6.114729592489259 0.049069895815424425
