7
XYZ coordinates of 7 points
Na 0.9640991755985917 0.0015711540106213562 2.0421294607362706
Na 3.4200096644996196 0.0 1.8476076931451821
Na 4.38813132087776 2.3553702823302296 1.9329060207419775
Na 2.1172872756216794 1.6417413860796217 0.0
Na 0.0 2.361561168639339 1.9582777520968864
Na 2.1981586436977274 3.849249938542465 1.9470133698198566
Na 2.268763305040771 1.6387194349925105 3.8886767984379933
