7
XYZ coordinates of 7 points
Na 2.1457592577788507 1.454208579115598 0.0
Na 2.2531323106135184 0.0 2.2209434238855907
Na 0.3304774942340837 1.4704753134347144 3.3495714617606844
Na 0.003964009109565292 0.037090411858694494 0.7859922195267066
Na 4.518768230670793 1.46496073046634 1.4804962138516886
Na 2.2490976621950867 2.9326967457913407 2.209031787886956
Na 0.0 2.879117173915759 0.77088095153128
