7
XYZ coordinates of 7 points
Na 2.6696726248255356 2.033704701307931 2.7845051147450626
Na 1.7818326134892417 2.7994235268694214 0.0
Na 4.3577468046298975 3.6349714435041314 1.0529114260190349
Na 5.192152909207392 0.9735130003356923 1.8406179388102377
Na 2.596199642775936 0.0 0.9917703933186315
Na 0.0 0.7118970048898412 1.2984776439031573
Na 0.27307622465670245 3.20137120451752 2.315983916637319
