7
XYZ coordinates of 7 points
Na 2.3264703453065536 0.9732253015082496 2.962209994553457
Na 2.6666989897140536 0.5316372963758256 0.23567175507016286
Na 4.9909045213944605 1.2492055673354656 1.8293054602363519
Na 3.125276087501728 3.41589672024896 1.2948914122752515
Na 0.5553862958882051 2.349663599311899 0.0
Na 0.39977629377268276 2.9695916527981177 2.720552867571307
Na 0.0 0.0 1.7995841382835287
