7
XYZ coordinates of 7 points
Na 2.5015596620660063 3.1301739474117465 0.26673754874640526
Na 1.848832815278983 2.293158142825915 2.9670354465469067
Na 0.4154560004344625 4.4975381703226205 1.667742171126395
Na 0.0 2.112595035795202 0.0
Na 0.9518070985476215 0.0 1.411060354065712
Na 3.5210748756682495 0.7778064437497516 1.1025077124380864
Na 5.300185660184999 3.0812975548693378 1.0332235345632979
