7
XYZ coordinates of 7 points
Na 2.788412178126693 4.2888263773830655 0.0
Na 3.812671059065995 4.185035243526083 2.8062041531657425
Na 0.0 0.33305470400848736 0.32952362115736894
Na 1.7321282657660901 2.217599042421418 1.8979313620184317
Na 3.5160207212269907 0.0 2.8591426122781964
Na 4.534840354629774 2.007838464826452 0.8712508733448294
Na 7.247654768423478 0.8097612609992377 0.41240815932305674
