7
XYZ coordinates of 7 points
Na 2.826620517264568 0.3761050857604753 2.564664238769721
Na 5.115076321871594 2.3497951974720976 0.0
Na 5.687907725401732 0.0 1.7678281885889595
Na 4.814587145201091 2.589728731278924 2.979949003114728
Na 2.5346900069226708 4.451056042481065 2.3799695417502145
Na 2.125488354971292 2.2773130655471974 0.3461017625965729
Na 0.0 0.5819201047508968 1.6016853511813158
