7
XYZ coordinates of 7 points
Na 4.849863924814244 1.953869117573045 2.935941125806671
Na 2.5009737230323656 0.46542392568439805 1.7923191326839563
Na 0.0 1.9527287604979373 1.0751705230048398
Na 2.5010170899274216 3.4409910854997974 1.7898215328532265
Na 6.345082025417522 3.908784722291419 1.2095777553348466
Na 4.406540438777665 1.9516084543064218 0.0
Na 6.348968742420274 0.0 1.2091755280477188
