7
XYZ coordinates of 7 points
Na 1.357824960711639 1.6507655478904835 2.319008925672091
Na 3.682911771942369 3.002625667161528 2.633103809053731
Na 2.0150743764733123 0.0 0.26908257402010727
Na 4.406720256236705 0.782984861842232 1.2703120196935345
Na 5.590898504956365 3.302200225588158 0.47272293811483335
Na 2.7478046185770797 2.9823790466710065 0.0
Na 0.0 3.624178211071766 0.6820414925659775
