7
XYZ coordinates of 7 points
Na 2.886434928629872 1.0621760438413612 0.16176875254062184
Na 4.164804123892951 1.1879448023258816 2.87699400205267
Na 5.661654823604068 0.0 0.5736486415692594
Na 6.2545814429159865 2.8087965418259757 1.451452817380987
Na 3.8568648995708603 3.900894267655003 0.0
Na 1.9453148536501201 3.075613007216641 2.161779547644742
Na 0.0 1.1366177886406117 0.9643357068260288
