7
XYZ coordinates of 7 points
Na 2.527122267929141 0.0 1.9348702747801159
Na 2.518592547734439 1.8088816548015723 0.0
Na 5.052061586066246 0.8100651227929623 1.935186572933257
Na 3.9779087164839684 3.2515390683462058 1.9342193765847875
Na 2.5202562735142697 1.8116861602278507 3.867919985514227
Na 1.0590755099849736 3.248487655359489 1.9335179151734074
Na 0.0 0.8010069518530513 1.936874038465724
