7
XYZ coordinates of 7 points
Na 3.0313119541687694 0.0 2.0761685197916417
Na 1.2408200401950005 1.2098165737461188 0.0
Na 0.06557969650862361 0.09586119156443279 2.52253485843534
Na 0.0 3.05033608358362 2.00874995407617
Na 2.982265296209239 2.9804453330503087 1.6821145992775386
Na 5.964313264985703 3.001345970483725 2.022349506782712
Na 5.97722929437268 0.04621771539533909 1.499686191083081
