7
XYZ coordinates of 7 points
Na 2.9859961925126237 3.8508619178205676 1.426338860126461
Na 5.058184660144814 2.3378503748141046 2.9897626199253926
Na 5.817962075854863 4.82234445528475 1.50033235477258
Na 5.138787652432466 2.3188515170672943 0.0
Na 3.9291688967397285 0.0 1.478452052285418
Na 1.2617303407936218 1.3872197446544396 1.481467252885178
Na 0.0 4.10434058163422 1.4793304054699177
