7
XYZ coordinates of 7 points
Na 2.7367369482539003 4.085416620242235 2.274382052443777
Na 5.15590784709485 4.132669313857614 4.054857458155918
Na 4.697307767274076 4.065652837825086 0.0
Na 6.410583749658817 2.4772633347902127 1.885519554854063
Na 4.721342280273698 0.0 1.7720175447232935
Na 2.1488252261996097 1.1837903025142318 2.7593397246677567
Na 0.0 2.99838011196053 1.7334451176257217
