7
XYZ coordinates of 7 points
Na 2.4777013514672825 1.3923849860280342 3.711307760664213
Na 2.655262728002878 4.341764491022648 4.184990481229004
Na 4.81103557146859 0.0 2.4434437996543235
Na 4.651805544290847 2.987765743292741 2.394807882522312
Na 2.849251907698147 3.2151494817938078 0.0
Na 0.7375333541002025 3.26409845986403 2.138578865577562
Na 0.0 0.36953786072569483 2.3667124352475053
