7
XYZ coordinates of 7 points
Na 5.3117663424708965 2.0870230772646274 0.0
Na 5.388248391791044 0.0 1.8413392038499405
Na 0.0 2.066233464941451 1.9006383778537388
Na 2.8293539286361282 1.7427460928286844 1.2650488739169843
Na 4.426945066630902 1.9643576387891533 3.5602523020114867
Na 4.244379874014282 4.463031247267563 1.7066331847961935
Na 6.784970111569123 2.7885155066173968 2.283069432253692
