7
XYZ coordinates of 7 points
Na 4.342076668982082 2.2200159267206203 0.0
Na 6.459501908303206 2.877057595087674 2.02291342600474
Na 6.383333140119049 0.16075254777084041 0.7743659586529237
Na 5.175579688397435 0.5932978160745517 3.488960221688534
Na 2.5389121793798166 1.2716185193841403 2.2109587191663853
Na 0.036489826649663826 0.0 1.1598776340633696
Na 0.0 2.8566130228063322 2.055452491192098
