7
XYZ coordinates of 7 points
Na 2.2494897658691757 0.290694125979873 0.7135086050110127
Na 2.630365069798381 1.3533954188423576 3.2333940288813348
Na 0.0 1.604501547739957 1.9722841611442223
Na 2.182090152408065 3.4143581658591398 1.4145751679885539
Na 4.902305140076116 0.0 2.3054756708523914
Na 5.059068108508368 3.073184952263402 2.4842530696749487
Na 4.378803827654252 1.934357099081529 0.0
