7
XYZ coordinates of 7 points
Na 3.5718353799130513 4.426073733173187 2.0499007668368274
Na 2.2934523301245617 2.6500449615437156 0.0
Na 0.0 1.8021802162650291 1.7404725313730378
Na 2.8156638090281954 1.6101037085087013 2.7577182520538335
Na 6.5427922268358 4.644478302209825 1.702635841761178
Na 5.112495715969611 2.1301314695720963 0.8965260372025652
Na 7.114954228482638 0.0 1.5850624061290903
