7
XYZ coordinates of 7 points
Na 2.4948642482382195 1.3715447711793096 3.9769921996606747
Na 2.4926388923483396 3.2899292767083166 2.174589500886864
Na 4.9837404902268485 2.412181879705046 1.9063285274930806
Na 3.8523600428948974 0.000960390489130325 1.9579166513811876
Na 2.493011425267114 1.5118259934502336 0.0
Na 1.1374454059861856 0.0 1.9580325662210023
Na 0.0 2.409146936157492 1.9077508486013453
