7
XYZ coordinates of 7 points
Na 5.322376285379569 1.283978626879113 0.0
Na 4.62039535118243 0.0 2.615390809596321
Na 7.390591689201926 1.0566960754397483 2.1620557469715886
Na 7.085593648784354 3.9909940913299695 2.7340759702382478
Na 4.64075151277626 4.03555779432501 0.9894709902329
Na 2.6523702793418873 1.804044344950155 1.2472867031819712
Na 0.0 2.493331419757828 2.4663091735032165
