7
XYZ coordinates of 7 points
Na 2.080260837242701 1.5852811333864008 0.0
Na 2.6978841268461995 3.125706062986962 2.6396485729722237
Na 4.742740609196482 1.581649180494772 1.2214068743083724
Na 2.6956186503016153 0.017781000217027443 2.624071896014579
Na 0.44412872437209794 1.5697598337121965 3.302328048297135
Na 0.0005450325340730089 0.0 1.030731772643143
Na 0.0 3.1645568266527615 1.0436631068322775
