7
XYZ coordinates of 7 points
Na 2.4277586498735833 2.012177832503825 0.0
Na 2.4345350283121814 0.0 1.6305334204181263
Na 0.0 1.1367418807312222 1.7401761571229817
Na 1.0231510471648733 3.628264165282327 1.6501151320539393
Na 2.4298075733019857 2.071239386013035 3.3787154259087275
Na 3.829828886339774 3.630065108776501 1.6493534017894644
Na 4.865998608074639 1.1462414876182432 1.7390618624406318
