7
XYZ coordinates of 7 points
Na 2.8706942985664927 2.2344727169241434 0.0
Na 2.1375239452838444 0.0 1.878216458277405
Na 5.784224494851775 2.132599180138318 0.6811855436270814
Na 3.857869605496187 3.3543202230856504 2.6131860029537037
Na 0.9809969083977428 2.5387444172273352 3.0068054224660474
Na 0.0 1.4345304684434241 0.3896183132356723
Na 0.7630375262677631 4.301082845849388 0.5806228370371478
