7
XYZ coordinates of 7 points
Na 4.427241425052225 0.487102230810874 0.5203176919261752
Na 0.0 2.212384317377559 0.0
Na 1.5671646547446474 0.0 1.2911098737740525
Na 1.5409361908546004 1.7595777221094244 3.7280955221655865
Na 1.6941074489471237 3.9916743074767886 1.7253008224609103
Na 4.378276099173478 3.485005209161418 0.48350294425147766
Na 6.540187533857266 2.0387634245924433 1.9635460374801383
