7
XYZ coordinates of 7 points
Na 1.9459322263520737 1.804416986980793 0.0
Na 3.669821594744528 3.6050086275611246 1.692359893549534
Na 6.048721629824699 1.8031299522028166 1.751439751030293
Na 3.6674887405911925 0.0 1.692348021918591
Na 1.9989005321182998 1.804254735247456 3.435386408931636
Na 0.00023483076192332142 3.281888044682203 1.7482830928679105
Na 0.0 0.32511551548459244 1.748137734080693
