7
XYZ coordinates of 7 points
Na 2.7982942742036365 1.894008829589137 0.0
Na 2.798541402665878 1.8939363360577386 2.979583955746145
Na 4.847283035449561 0.4118436314309475 1.4895512327144564
Na 4.907237474868031 3.269264524376789 1.4895824371523516
Na 2.1812531119804697 4.121477506093521 1.4899258029084188
Na 1.4714232644003091 0.0 1.4898931545061223
Na 0.0 2.27007123294555 1.4894966371689358
