7
XYZ coordinates of 7 points
Na 2.7823628367604543 1.16411898542382 2.950873291077931
Na 1.9691550092543932 0.4807062216024819 0.14659060780203664
Na 0.0 1.7580752188615119 1.9984289940569997
Na 1.4769031226616918 3.4384988479635874 0.0
Na 3.6855929443289934 3.8685600671242115 1.9917043354099915
Na 6.252970025855918 2.6186281436916943 1.0727906076403728
Na 4.785903998166206 0.0 1.0478673370362175
