7
XYZ coordinates of 7 points
Na 5.289254488586074 3.6686733437426042 0.045088205192553715
Na 3.9566097312137 2.6756140452751334 2.538783705917146
Na 0.0 1.24415854228151 0.7298967322575971
Na 2.3869868833305574 2.906137842082544 0.0
Na 4.493655419255241 0.787162880322041 0.27129368439157997
Na 7.3582008823243825 0.0 0.7190220370326083
Na 8.113521400945622 2.906277755980126 0.7321898988880904
