7
XYZ coordinates of 7 points
Na 2.544078777233325 1.524793792635088 0.02079317152521426
Na 4.038535782647367 2.9897528114399803 2.1745628137128117
Na 5.54467071480507 1.5746702282244098 0.0
Na 4.0868349145822895 0.0 2.0970693654672
Na 1.5554586287153085 1.4354580835218638 2.83802053434672
Na 0.07265449286588099 3.055854629890553 0.7865698555869622
Na 0.0 0.0669520373429135 0.665893998629995
