7
XYZ coordinates of 7 points
Na 1.9440866492029258 4.332088198829501 0.8286117693092115
Na 0.0 3.0054060113960683 2.672783415136334
Na 0.6025084094991506 1.7769006752228615 0.0
Na 2.5151798002466164 0.0 1.4864339762750318
Na 2.946482045078038 2.549292863210828 3.0200296960378656
Na 4.875747112296842 3.7571941346749003 1.064895448316357
Na 7.311701588126604 2.071041093713923 1.521629137409152
