7
XYZ coordinates of 7 points
Na 3.898152106021582 2.7193137938316148 0.5894221359147086
Na 4.09208042746323 0.5331638311981421 2.6379176122280574
Na 6.846110503775725 3.1865323441092483 0.2976699689729695
Na 5.739839896235619 0.4042363579638189 0.1402619820640887
Na 2.76959149722995 0.0 0.0
Na 0.0 1.1533022199454663 0.16954590599575178
Na 1.130254913155243 3.7852501865090584 1.0676749086045718
