7
XYZ coordinates of 7 points
Na 5.493881459042937 3.6825933151288455 1.6418310632590587
Na 6.30564006796004 1.3096784049962131 0.0
Na 8.391530567330257 2.960072055775334 1.3826623700872638
Na 6.555856470537449 1.2108731547298137 2.9772673805410808
Na 4.156644860689718 0.0 1.6368249094737282
Na 2.7691310234998037 2.5859639518225457 2.292202284512657
Na 0.0 2.476048896837176 1.1478141010971175
