7
XYZ coordinates of 7 points
Na 5.001921326883465 3.996489057217981 2.144450868788531
Na 6.957027396001537 3.7944777839569945 4.408241466951052
Na 6.886282595670918 3.075109021137949 0.0
Na 6.596447966943162 1.487048598965771 2.5248228612442927
Na 3.9873200029409315 0.0 2.523469194501457
Na 2.5690812919768717 2.565000440976054 3.174444695608968
Na 0.0 3.449973407205665 1.9089296862779523
