7
XYZ coordinates of 7 points
Na 2.7659724199497693 0.0 0.9945804218679024
Na 4.907569765609381 0.5634509690416023 3.0146529349135363
Na 5.299268657038842 1.368929584211563 0.15846638229006837
Na 3.3090801815365416 2.822961048274186 1.8575752544685629
Na 0.30268404159211515 2.898624394081968 1.923008691709065
Na 0.4443533160735258 0.06353102878789307 2.906159858971133
Na 0.0 0.6133571005008656 0.0
