5
Properties=species:S:1:pos:R:3 pbc="F F F"
Na       0.33335341       0.33335341       0.33335341
Na       0.14543998       0.32365877       1.25843033
Na       1.19584443       0.46314885      -0.11167661
Na      -0.46109377       0.00990606      -0.33332218
Na       0.11645565       1.19993261      -0.31678524
