7
XYZ coordinates of 7 points
Na 2.8265073649251313 3.7630220841143918 0.11366138413755711
Na 4.002288890689487 4.028723811479331 2.856621712432858
Na 0.0 0.0 1.0570710208480234
Na 2.054050102577375 1.8222931404864942 2.2626596413074482
Na 4.81812413640252 1.7429355777393265 1.09406544968423
Na 6.999137082841351 0.5417000362270783 2.769249935309072
Na 7.60482195302323 1.5220735861257766 0.0
