7
XYZ coordinates of 7 points
Na 2.592496373878175 2.407641203483114 3.116454000350689
Na 4.7577754209071355 3.8471542602176636 1.5593829089715707
Na 4.750665258727789 0.9507623427587459 1.5570195849534199
Na 2.5919973668329224 2.405739345257099 0.0
Na 1.5978255449774172 0.0 1.5593027270801914
Na 0.0 2.4104038770411895 1.5586702252636258
Na 1.6116178843888262 4.813405461086588 1.5566485002111843
