7
XYZ coordinates of 7 points
Na 2.1967527056154403 2.340196602864815 3.002341413397959
Na 4.659027622274428 0.8244587989317737 1.3138861729156504
Na 2.264633883767994 1.573690418545283 0.0
Na 0.0 0.707196154128677 1.5764123597242312
Na 4.194881215289918 3.336887336667012 1.7109023290063154
Na 2.4113066963925203 0.0 2.2666799013867234
Na 0.5409003263237327 3.440184149631651 1.3582683371386677
