7
XYZ coordinates of 7 points
Na 2.4261035375861058 2.014894238667917 0.0
Na 4.415189414841114 0.07361014089690576 1.1240327302460575
Na 4.195985002420519 4.120134851522697 1.1979819288997546
Na 3.0030084749917294 1.9964801356862714 2.9348342713738984
Na 0.1089266059629701 3.861083026952577 0.5240651749903147
Na 0.0 1.9685715913963584 2.850490464709663
Na 0.2736577475245767 0.0 0.6020505218463653
