7
XYZ coordinates of 7 points
Na 2.1512313549939606 3.5882807367966327 1.5641128778456204
Na 2.1560696452411467 1.7520340433228043 3.7089176829853496
Na 4.309962809033048 2.4462304719693826 2.0225045834347166
Na 0.0 2.4320426956845433 2.0218208119922902
Na 2.159431532174521 1.4610786349648244 0.0
Na 3.487364917256248 0.008557581921773472 1.9277504655865716
Na 0.8429259661074069 0.0 1.9256308300241503
