7
XYZ coordinates of 7 points
Na 7.023267831292936 0.0 2.1140079298118017
Na 6.382350223678255 2.0324717942232327 0.0
Na 8.191164154321545 2.321439744863941 3.616776163121986
Na 5.644650700071141 3.4762237285434483 2.5270948112480354
Na 4.417606961444008 0.8546463930113747 3.3371970299819145
Na 1.6789234120829086 0.2848472079076188 2.2745716126517186
Na 0.0 2.7599798948417646 2.360819817901616
