7
XYZ coordinates of 7 points
Na 2.3181329461538716 1.979712723034171 2.9736212128224553
Na 4.504707989423634 3.982088340791431 2.4617796296646235
Na 4.526731065824412 0.0 2.457439760891556
Na 4.91252020509515 1.9964547106328339 0.24582292571127595
Na 1.9173074931191512 1.9661378261716902 0.0
Na 0.03913800696596814 3.494708213265759 1.7578119036995297
Na 0.0 0.5057431368072443 1.7775661873830653
