7
XYZ coordinates of 7 points
Na 2.526225098840597 5.468190806042327 2.11550035251219
Na 0.0 4.421574576869123 0.8809883020526901
Na 0.8882677515230539 0.0 2.5329203478773006
Na 1.4610597790475497 1.8722869006019607 0.26261534352544624
Na 4.078495443777996 3.143606897202216 1.0191859274195378
Na 6.730423162604088 2.1944804921531404 0.0
Na 6.441843760816123 3.0209301454220236 2.8635028633368336
