7
XYZ coordinates of 7 points
Na 1.5615306739082047 1.6133372087109894 3.658094424232168
Na 3.131414896400318 0.0 1.9942976076272978
Na 5.714621124328871 1.3646432228545469 1.8398005960215467
Na 3.381717515619062 3.1032707795606793 2.1273828610755587
Na 1.8365647932674594 1.5178123009064413 0.0
Na 0.28028983017805553 3.141595307727876 1.6988450162992816
Na 0.0 0.032627173055551406 1.946230515896053
