7
XYZ coordinates of 7 points
Na 1.546956703316188 0.0 0.5875189521522239
Na 0.8385365095204275 0.3562829512003407 3.4313411280751493
Na 6.223970815256332 1.6435751849640174 2.2113344909256396
Na 3.247291443799853 1.7750715945926978 2.316673967091816
Na 1.5475883955656955 3.942598804605121 3.528157159188241
Na 2.418971594675888 3.5116831708120624 0.0
Na 0.0 2.435480743147589 1.43210070786944
