7
XYZ coordinates of 7 points
Na 3.7035225242502334 2.075397667878456 0.041877503932367
Na 0.7027025586012291 2.042017679406211 0.0
Na 0.0579330109391345 0.0 2.1023375962146096
Na 0.0 2.9218710630704083 2.7789736880375604
Na 2.158596261625033 4.3426987967518995 1.2535783847813646
Na 4.559969538990184 3.2346657291092895 2.672830257581924
Na 5.407514472886137 0.45980109143714365 1.9104531583177544
