7
XYZ coordinates of 7 points
Na 2.9789713508998235 0.40876986471521953 0.4078657921446057
Na 3.9027304660780135 0.0 3.2312718679945664
Na 5.900171914381673 0.5329404525894703 1.0573560564484392
Na 4.502445741155645 2.967798299122567 0.0
Na 2.9394324482346574 4.286844582859599 2.2002935185634773
Na 1.493063784578522 1.6978972542238884 2.6704699174206077
Na 0.0 0.6976912762263219 0.2700172786738636
