7
XYZ coordinates of 7 points
Na 3.975993179949812 2.7910600433648316 0.16336578925101997
Na 2.07387540524815 5.109430209091831 0.0
Na 6.547191492762694 3.657062031900576 1.4413828786478915
Na 3.944809632789849 4.844440985725406 2.333138868616178
Na 0.0 3.5897945047236286 1.5524161334924744
Na 2.4441747655926314 2.2637802887597505 2.6900160750250963
Na 3.1191474836400532 0.0 0.8442456372262377
