7
XYZ coordinates of 7 points
Na 2.2021860804746396 0.0 2.3955102390432566
Na 0.0 1.679719936425628 2.707059446229486
Na 0.6681498813494413 1.271736973447061 0.0
Na 1.1383070264008959 4.094386956655267 1.1824486601454207
Na 2.3135200506704594 2.8278020557793804 3.7766322269818806
Na 3.30283188689481 2.28967934945101 1.2256839330258975
Na 6.191244132404193 2.00102603460647 1.5505491370079103
