7
XYZ coordinates of 7 points
Na 2.859844294955222 2.024289361764139 3.343654259388349
Na 1.9052771264455157 0.0 1.807806356787896
Na 4.788978938990031 0.5737455197597872 1.7442838819857924
Na 4.75441646870501 3.5081859893368303 1.7384616254477112
Na 1.8654539888501962 4.0458093960716415 1.8278925189086894
Na 0.0 2.000068837787027 2.418468067272417
Na 1.779185673661168 2.032359872456703 0.0
