7
XYZ coordinates of 7 points
Na 3.085092589431728 1.3308013640882348 1.5754382192152983
Na 0.0 5.42804195505291 0.9268249294467863
Na 0.47550024575067973 0.0 0.9310604656922955
Na 0.49901294418245157 2.73841978385292 2.15348296690657
Na 2.7289450816785132 4.192235139096338 0.7655621385678278
Na 4.752360928089028 3.470442675638556 2.8642681451446377
Na 5.227943331731626 2.719319713767768 0.0
