7
XYZ coordinates of 7 points
Na 2.979000649428331 2.272623749022308 0.28078459863755784
Na 2.3241709776503856 0.0 2.13062046723432
Na 5.180344265578458 0.6697686050803802 1.5247068650928624
Na 5.337946282167632 3.660406349026148 1.4874269000908824
Na 2.615767469837257 4.071505925333032 2.6617591072275566
Na 0.3526804333877377 2.1156179523305654 2.953385852079485
Na 0.0 2.549457530022013 0.0
