7
XYZ coordinates of 7 points
Na 5.781692966335619 2.060338798441948 2.5644676926277667
Na 0.0 3.54232213144022 3.2035045368251978
Na 2.3668166226958953 2.006471793819281 0.0
Na 3.3981515425035194 3.566861996356385 5.696055045066432
Na 3.5132025940437233 5.602447730571221 2.0044787170280216
Na 2.884814816116135 2.7933253717427493 2.8480337765023465
Na 2.27111744167953 0.0 3.7602476894148134
