7
XYZ coordinates of 7 points
Na 4.486267566548904 0.0 0.0713246792020939
Na 5.513875757424616 3.943194628068595 1.3260261130805713
Na 6.972783343129141 1.683979676087736 0.0
Na 6.874545103208934 1.8556200159837466 2.9924179566611264
Na 4.2909642438569735 0.3261695495158482 3.0448391773000534
Na 2.983422385137282 2.3226598033446413 1.229929054957807
Na 0.0 2.1423663422198134 1.4429608636860545
