7
XYZ coordinates of 7 points
Na 2.5747372501873644 2.3744268238704995 3.218901866303206
Na 2.954776974362007 0.0 1.609639076529959
Na 0.0 0.8498787334033979 1.6107521618212033
Na 0.002425619115727584 3.904818645795297 1.6100115447772587
Na 2.9622590053998383 4.748883628366016 1.6109912232326558
Na 4.9609931079609355 2.37125093100712 1.6094132562878984
Na 2.5727481889770694 2.3757209813838265 0.0
