7
XYZ coordinates of 7 points
Na 2.486415594451669 3.6284547017675917 1.9794150336282832
Na 6.70823032312543 1.1596352141226989 0.8278777725175432
Na 3.473053987088756 5.990491536709142 0.4149153733427018
Na 4.76921127936237 3.3122552127111557 0.06228248302991851
Na 3.8420471531182523 0.9666271766505591 1.6814326299075453
Na 1.5473380857146082 0.0 0.0
Na 0.0 2.4582306108588794 0.760548348057155
