7
XYZ coordinates of 7 points
Na 2.7503217358416676 2.4669358490050195 0.11587854610363996
Na 1.5343849790685635 0.0 0.28182337121195683
Na 5.276345417175962 1.6781660216807734 1.2540504817123859
Na 2.7458758752230326 1.0922767575883707 2.497435408018099
Na 0.0 0.892477276746358 2.3845157484481483
Na 1.2092970627353172 3.36142751756927 2.218695273864511
Na 0.00698084362999396 2.26898844850211 0.0
