7
XYZ coordinates of 7 points
Na 2.5997537294568445 2.362380389288062 0.0
Na 0.0 2.7043887035486707 1.4614498659563158
Na 4.9028151991302575 3.6124693947221855 1.4621614081223324
Na 4.499414512150017 0.5580317051635397 1.460956728011054
Na 2.123284876718242 4.935682875632969 1.4612035737350453
Na 2.5984264836237907 2.359990059130044 2.9246302285188897
Na 1.4721399792948342 0.0 1.4604544255381282
