7
XYZ coordinates of 7 points
Na 2.8268562171861036 0.9872297574567346 1.128817443822389
Na 2.850684356224113 2.3277782074705593 3.820045908474201
Na 0.0 0.0015484049163909663 1.305346352736839
Na 0.6338408618446267 2.8797802332031632 1.8733100301021848
Na 2.8107244906437154 3.765948612696133 0.0
Na 5.025321319530854 2.888455133051525 1.828909485427077
Na 5.654240703258182 0.0 1.3116071981645512
