7
XYZ coordinates of 7 points
Na 4.124439689292014 0.0 1.0028071824543545
Na 2.6805802263440395 2.6133072508736768 1.33418611620286
Na 0.0 2.3654935223465827 0.0
Na 0.6708272466396422 4.823448139821639 1.5731389972478822
Na 3.238240927825625 5.292812280982796 0.10096249831425874
Na 5.305306404855009 3.9931541833490494 1.8348694780360495
Na 7.8359816095116255 3.723009341388196 0.2469076061252968
