7
XYZ coordinates of 7 points
Na 2.2534707047212432 1.4071081098158515 0.0
Na 2.256032199036884 2.7596784328677773 2.4040803850442005
Na 4.659791650245664 1.3884764201514586 1.5905137680531825
Na 2.25600484618008 0.0 2.3723976393633768
Na 0.0 2.777125184317259 0.8125529798799506
Na 0.0024886327183720747 1.3693480155750832 3.184602793844762
Na 0.0018375352496832198 0.01789656911667159 0.7802696795911372
