7
XYZ coordinates of 7 points
Na 1.1297399797010423 3.8193988363578577 2.5704233382448973
Na 7.184362860701317 4.9124159291157685 1.0624046390680706
Na 6.937545960481983 0.0 1.0782494926940387
Na 5.576258058652947 2.53377969707779 1.936163885267281
Na 2.962036866428958 2.712998446971191 0.4705143662689411
Na 0.0 2.76101727538087 0.0
Na 1.1666998287702257 0.8721475249723151 2.014052720588239
