7
XYZ coordinates of 7 points
Na 1.3609566239637532 3.940255819448142 1.917538408151315
Na 2.031797291216666 2.0398604599710053 3.7257925076688228
Na 1.871461020723773 1.7868790219607094 0.0
Na 0.0 1.1969745209556908 1.8570573654799585
Na 2.807276406886611 0.0 2.1248976872764347
Na 4.120858767312633 2.701458549436132 1.7585811881142708
Na 6.820002405653042 1.8763345755243388 1.8341771109329073
