7
XYZ coordinates of 7 points
Na 4.566661353086904 1.3524622829375643 0.0
Na 6.919491214512487 0.458765936415925 1.6257607993313572
Na 4.84551782674255 4.274275980619843 0.6254620233101704
Na 4.848476149080358 2.258634454079487 2.842974273403475
Na 1.8864110468751871 1.8695167588903667 3.175411039080388
Na 2.0139146649934467 0.0 0.8310839607787841
Na 0.0 2.2173504793529992 0.871072442204637
