7
XYZ coordinates of 7 points
Na 1.9820592669347383 0.77399833620786 3.5462816203028122
Na 4.595839998410181 0.0 0.0
Na 0.0 2.523296417265843 2.1329926888695754
Na 2.312260085297869 4.322458757045874 1.501926435894409
Na 4.258001973186644 2.1103888033097884 2.1064739791943863
Na 6.773129085058662 3.6374324253233747 1.519198659440386
Na 6.588857370243753 1.953675202798403 3.9856315468354326
