7
XYZ coordinates of 7 points
Na 2.7736390330532674 0.0 1.8205609645158483
Na 4.066299076572835 3.718078558660379 1.1349532879702497
Na 5.537662340340645 1.1357722123209495 1.534233933372397
Na 3.7269427860375366 2.1659838673704472 3.6789358040752633
Na 1.419433379111867 3.7164232369681947 2.5430581479805445
Na 1.762148521856905 2.167961884002132 0.0
Na 0.0 1.097259687975084 2.1664875688897376
