7
XYZ coordinates of 7 points
Na 2.0108288379035977 2.246552740036087 3.5905760696378723
Na 0.9271625348944879 4.249911815012778 1.6373320772203357
Na 0.0 1.9123149148919647 0.0
Na 2.142823916573234 0.2793321348676804 1.327090742123291
Na 5.127577401053333 0.0 1.4287758739514318
Na 6.939967918687178 2.0736171128844627 2.611805375109026
Na 8.502815433408148 3.3045625606276174 0.3706171883451282
