7
XYZ coordinates of 7 points
Na 2.828352013406101 2.1901695211471774 0.11143243404923708
Na 4.255702834908859 0.0 1.1869004210812952
Na 0.0 2.203855206808872 0.9419443532617172
Na 2.199015405765432 1.6963234467523662 2.83335713069173
Na 3.6947166780834997 4.261417054249059 1.832868294828967
Na 5.296610795685427 2.1143689652372113 2.7649145493369285
Na 5.620163337771118 2.5761747527229915 0.0
