7
XYZ coordinates of 7 points
Na 4.718659805734494 0.8752202433132763 2.230850041565978
Na 7.295081155636872 2.2896010129929256 2.818301711230069
Na 6.28112383193176 2.134341995691235 0.0
Na 4.875172512158908 3.8621921320591905 2.006686167278932
Na 1.9667496792133061 4.596214000289965 1.8643509150086048
Na 0.0 2.340020812450859 1.6646184386836458
Na 1.8703916752393317 0.0 1.860393169306369
