7
XYZ coordinates of 7 points
Na 0.0 1.5958274882984327 1.1398332118137613
Na 2.1995590298447034 0.029884559306989855 2.735346370221187
Na 5.874269894707968 2.4994578543011143 1.3882635363004001
Na 3.01215311023115 2.38739545097943 0.8362340131556631
Na 1.9283619728280397 0.0 0.0
Na 1.5423103826569644 2.6704843655124297 3.145694057923989
Na 0.8701406121018462 4.364050499605806 0.8749318248653826
