7
XYZ coordinates of 7 points
Na 2.8257718683814113 1.2300278524603199 3.5324925592821494
Na 3.8205156949916894 0.0 1.434076990218077
Na 0.9804295996777684 0.06358098734736539 1.7133623024328046
Na 0.0 2.7457805487329976 1.707522787120554
Na 2.651661918887207 3.5845835190911552 2.3653960414097983
Na 5.174765640974644 2.316465255306978 2.3167823705661106
Na 3.5078003922605614 2.3718684339680203 0.0
