7
XYZ coordinates of 7 points
Na 6.731179659780057 0.0 2.5454104258444543
Na 8.02006798989036 0.9366690426758283 0.0
Na 8.614467683827286 2.334638526978294 2.57889768481241
Na 6.594051290753808 3.4871281225117583 0.6829074414599562
Na 4.403479894471266 1.6818309378125111 1.6667668224704373
Na 1.8572334101213428 0.7742659530214955 0.3711276050294023
Na 0.0 2.277146841704407 2.1815357353730094
