7
XYZ coordinates of 7 points
Na 0.1793195083661594 1.5470435231330864 2.756681503894682
Na 4.365824579272381 0.0 2.3199024922124294
Na 5.056927717132036 3.857373761280342 0.5069141285744688
Na 2.6463832082100387 2.1869989778576873 1.174849330832297
Na 0.5198914685360064 0.42429387098755766 0.0
Na 0.0 3.350461963019819 0.3713024598089328
Na 1.3501381623159068 4.300266752370321 2.8722234740070642
