7
XYZ coordinates of 7 points
Na 0.2508711073241172 1.1751369082277647 0.21111538440291933
Na 0.2439204713533999 4.175929452725775 0.19148612798826492
Na 5.522054147794871 3.3330846408415136 1.5676197613369947
Na 2.604702490573277 2.680756094618083 1.2968093862099022
Na 0.0 2.6905295946046883 2.786085901023453
Na 1.6512229006114176 0.19159060415528595 2.671456856447252
Na 3.0019034705155434 0.0 0.0
