7
XYZ coordinates of 7 points
Na 2.189189934896783 1.8929396412802797 2.9693830739141
Na 3.950768032131608 0.0 1.4304047649485978
Na 6.2748253882543015 1.8924410499676156 1.58060209135216
Na 3.951872005328123 3.7843864038864385 1.4307785590531767
Na 2.099850447793757 1.8922498703811175 0.0
Na 0.0 0.4041479325083226 1.5496944272316338
Na 0.004765689408955165 3.383927014150491 1.548409954080769
