7
XYZ coordinates of 7 points
Na 0.0 0.030739560344860917 0.8777314293699805
Na 2.37138124018609 1.8505886986068076 1.1771333606933023
Na 0.6288848879075779 3.835412511373456 2.6061215941541946
Na 3.440914966389304 4.560212242836201 1.901134366663857
Na 4.957345036414003 2.8183293838273786 0.0
Na 6.599339511491287 1.3895182355185538 2.066658506067233
Na 4.055033286635788 0.0 2.8449793722222436
