7
XYZ coordinates of 7 points
Na 2.922653427074488 0.3471701313664952 0.3197149125304594
Na 4.603118867713324 0.0 2.7792645678241303
Na 0.0 3.914402397121316 1.921365216437282
Na 2.202982771908345 3.2391927045583904 0.0
Na 4.889601761600781 2.469718164947514 1.097817017954445
Na 7.771851264809234 2.6068508533448034 0.2688147049673307
Na 6.647495804677254 4.676320377998953 2.124617706869858
