7
XYZ coordinates of 7 points
Na 4.335597956758553 1.0327169458527496 3.904671039581687
Na 4.212418754056367 0.0 0.0
Na 6.487835415051594 0.3610241188939729 1.9241232241791435
Na 7.521691312793428 3.162232885120451 1.6538449956934334
Na 4.892870147488768 4.574460892885173 1.3665579321483459
Na 2.97674236047997 2.2699503390336946 1.5289726267266022
Na 0.0 2.3442597403786474 1.8355766170294798
