7
XYZ coordinates of 7 points
Na 2.236764721978747 0.0 1.1124710670844011
Na 9.729463406896851 1.1920554399707048 2.5702877977033927
Na 9.426400531945335 2.7004936988980615 0.0
Na 7.196613016608817 2.6956311624872207 2.0038174051595963
Na 4.266873470379171 2.141322017423509 1.6604843045462019
Na 2.0325122861524774 4.1368780082055086 1.8631525433597322
Na 0.0 1.980546647075027 1.3811919883692654
