7
XYZ coordinates of 7 points
Na 4.430750911819639 2.67438684297693 2.8727321282707043
Na 0.9822741031665397 0.0 1.6412299750544501
Na 0.0 4.5938540035862765 1.7025720663849664
Na 2.157764678661723 2.664901681012228 0.9083063112883435
Na 4.936315866356749 3.3476830119193894 0.0
Na 6.222771655895373 0.9252651942135287 1.218210140896301
Na 7.127899469881784 3.667556846271909 2.0203985098777233
