7
XYZ coordinates of 7 points
Na 3.7288880187780906 3.6329757722968172 0.0
Na 5.04347177975015 0.7568708266233497 4.192834875298214
Na 0.0 2.16609673418173 2.8001475324921055
Na 2.97468734450895 2.179703109444412 2.5255159511591234
Na 3.9886145342679606 0.0 0.7178311452512329
Na 5.789560622490195 2.213320247584419 1.668971012213002
Na 4.778090306458399 4.389831501648655 3.4794837212267398
