7
XYZ coordinates of 7 points
Na 1.759292231237167 1.5192715225615756 2.374538748612685
Na 2.8174229331686034 0.0 0.018582024068877323
Na 0.0 1.0262978538893919 0.0
Na 0.5478859375274622 3.833831783430224 0.8973252816321572
Na 3.3103326606082923 4.68852580330273 0.08491742550998585
Na 4.467349754725844 2.1770645096459056 1.2604350075538986
Na 7.38209889608348 1.8645574288614415 0.6244123257862894
