7
XYZ coordinates of 7 points
Na 4.747496681696122 2.081297064766178 0.0
Na 5.847443542974783 4.855375456527821 0.3599963030633913
Na 6.572600152788599 0.0 1.1352883740680029
Na 5.067211558526802 1.8134147922663884 2.973575240011918
Na 3.955432787454545 4.589480967344416 2.6760409777848935
Na 2.102435965025937 3.3410800613322156 0.6668251496035983
Na 0.0 1.2913389972785891 1.2489449553398713
