7
XYZ coordinates of 7 points
Na 4.456558431634141 1.7219615308652338 3.6971483651399204
Na 5.922429342521292 0.06324899456416577 1.6720836863111899
Na 5.679667970935624 4.0392834627264165 2.234823793882949
Na 4.747701984464231 2.2628116528768083 0.0
Na 0.7401386685026243 4.514529039030102 1.8315990328405403
Na 2.2619830553508593 1.9429191978049771 1.6571478411463985
Na 0.0 0.0 1.895655033939712
