7
XYZ coordinates of 7 points
Na 3.651341148183648 3.287148147411852 0.0
Na 8.41458629076159 0.0 0.3185905301740967
Na 5.217196504774935 5.7873468976909335 0.5195826396772534
Na 7.25731041460475 3.6367984733705567 0.9482796252707597
Na 5.640397628317167 1.123783392430345 0.618895743442996
Na 2.692854111100801 0.5545782199177608 0.7203672549623588
Na 0.0 1.8832717169071833 0.6441491544388007
