7
XYZ coordinates of 7 points
Na 0.0 1.698699047225972 1.227102331499135
Na 2.3962364914978616 2.399786099002476 3.2135259218671415
Na 2.529663412249935 0.0 1.608041574843007
Na 5.098778625845801 1.6478633860487848 1.4301915924419415
Na 4.1097878700840145 4.545147698921107 1.4689531127345674
Na 2.350330569192573 2.8119244908734182 0.0
Na 1.0453564419157506 4.541683205029595 1.8433843691456384
