7
XYZ coordinates of 7 points
Na 2.242155673196996 1.8608877710145895 0.0
Na 3.513334966789171 3.710802143348075 2.0068711465374687
Na 5.205312840668806 1.8623821887149525 0.3804530553598054
Na 3.5146779462887316 0.009488994318852528 2.006096805311163
Na 0.0028585910483197585 0.0 0.7715608809205228
Na 1.2657276970371674 1.8591646746681096 2.77449800042083
Na 0.0 3.720188192318328 0.7731068395404435
