7
XYZ coordinates of 7 points
Na 2.013326701932134 0.0 2.302583548505667
Na 0.0 1.4244819724252695 4.011024536605895
Na 7.088707740923359 2.5565899242440975 2.6250556446818365
Na 4.583804579241942 1.0973681600504566 3.3941679416737736
Na 1.884573555057114 1.9152334020019812 0.0
Na 2.286492528706304 2.939605735800459 2.792521929934871
Na 1.9021653222954011 5.914792625780057 2.7077942433290003
