7
XYZ coordinates of 7 points
Na 2.583627596012933 1.0764144229219745 1.4201263757421312
Na 1.3207460799252684 1.0416874103967275 4.147190745692309
Na 0.09017514872197196 0.1851844702919146 0.0
Na 0.0 2.5145258578883722 1.8883719044335305
Na 2.3529040348543053 3.9942379415806144 0.7562740742666698
Na 4.919387082386921 2.9050553528145953 1.8597110352157955
Na 5.378820235142401 0.0 1.2914292682480504
