7
XYZ coordinates of 7 points
Na 4.492642600805975 3.837717834993601 2.498515125846217
Na 4.4114056131458765 0.09952894463919082 4.004776155015276
Na 6.335497592740355 1.4902536946629816 2.166342684015896
Na 4.424623198604323 0.6657590689090156 0.0
Na 1.5790957936829693 4.406875216369738 2.164650245109353
Na 2.547232362368965 1.5744037911292856 2.1638957312551788
Na 0.0 0.0 2.168646939914402
