7
XYZ coordinates of 7 points
Na 2.1858368864402062 1.907183674648135 0.0
Na 2.171638510742763 0.9167535099709041 2.8209585309136362
Na 4.31297371007779 0.0 0.9265679399510689
Na 4.3052132046497285 2.8256818473518623 1.9134969184023678
Na 2.2307289516526927 4.759514164723986 0.9289969127518568
Na 0.09833148392225943 2.8921559871384828 1.9136847309764808
Na 0.0 0.06613489712518927 0.9277793266346794
