7
XYZ coordinates of 7 points
Na 2.0821779793900297 2.3598076382129096 0.0
Na 3.0466564228052815 2.5994792672205014 2.6060298423423958
Na 5.793787026071865 1.851244239049463 2.049311500822955
Na 3.698625615364537 0.0 1.2665675413561748
Na 0.9438160736834046 0.015846921560053795 0.9648465383898346
Na 1.6759513825575194 0.39236400474505573 3.616894870381115
Na 0.0 2.6194608346746038 2.273394878749107
