7
XYZ coordinates of 7 points
Na 2.9601751761278225 1.208674977220117 0.9572684989584208
Na 3.989757842814922 3.8604202743431015 0.0
Na 0.0 1.0201268091443236 1.3883198208885261
Na 1.3561262888017533 3.692441380914556 1.4256859800817263
Na 3.9122936362022553 3.2705807117677583 2.929357436426832
Na 6.4693537848520375 2.90165274269474 1.4007388060575863
Na 5.687727952569166 0.0 1.324474333519874
