7
XYZ coordinates of 7 points
Na 2.5925378111861734 2.600319051066633 2.382174369471529
Na 4.8599743174952685 4.351260886847074 1.4868889378787906
Na 7.683105089362393 0.579133669234895 1.678746562455542
Na 4.909638662157311 1.4089511620393016 0.8933455486479619
Na 2.258204543247209 0.0 0.93758130392815
Na 0.7700809835845651 2.43257914010172 0.0
Na 0.0 1.1052933874954687 2.573074030130191
