7
XYZ coordinates of 7 points
Na 0.7053368041474399 1.6935051341019567 0.0
Na 1.307917581587792 0.0 2.0665932671249196
Na 7.932743463118725 2.4908374491154897 2.0217854531660473
Na 5.5225158661772245 1.207374484520578 1.0505690925668643
Na 2.9793931892996928 2.166828283528061 2.0731952179259574
Na 0.0 2.222097588851539 2.987858319941476
Na 1.149477312090562 4.057269241510802 1.3112118862995807
