7
XYZ coordinates of 7 points
Na 1.8917847594161699 2.9486010611615274 3.128675363938603
Na 4.041682813715037 4.2941808270968345 1.531626747557905
Na 0.0 0.9198498589666783 1.9880128761625588
Na 2.1687791386936195 0.06313782956414227 3.871873300949037
Na 6.972036750213842 1.3110938587099747 4.120592232848087
Na 4.441174950469686 1.4866539750881107 2.516474084052085
Na 5.131825792054297 0.0 0.0
