7
XYZ coordinates of 7 points
Na 2.132462230214598 0.0 1.754985438909908
Na 2.460830560278705 2.077093408110512 3.895064309328476
Na 0.0 1.2868254238221741 0.08122397559642175
Na 0.5601124173110164 4.23008952732598 0.15293681550861632
Na 2.9034648753633845 4.380079420409041 2.019626676951085
Na 5.164128222635005 3.4466410416698565 0.281008685341337
Na 4.506632557651811 0.5350655887485584 0.0
