7
XYZ coordinates of 7 points
Na 5.41932762177945 1.6646506954393572 0.0
Na 3.928822680833657 0.0 2.0045099072508883
Na 0.0 2.419799496349748 0.5931424265964198
Na 1.7884793558460683 3.8226494688974517 2.5537289934667715
Na 4.631008474590573 2.8518674181094794 2.6298463424787806
Na 7.516528730755232 2.231676062288439 2.0710787482672037
Na 6.17134356334498 4.4943264366659985 0.646321907609511
