7
XYZ coordinates of 7 points
Na 5.441011251362614 4.822931780103643 2.7878493289427295
Na 3.594556906568522 1.2899772751988472 0.0
Na 3.4942356652851188 0.0 2.711052478217856
Na 3.681639869122029 2.7114314080404873 3.9898300404881453
Na 5.7077756890379785 3.410225760933387 0.15707798372522142
Na 2.99208287711465 3.9138310139593964 1.3250714717215137
Na 0.0 4.093596752577637 1.446987338003296
