7
XYZ coordinates of 7 points
Na 0.0 1.9640859062844793 0.0
Na 1.17585613814401 4.719512442231634 0.08203086988571362
Na 0.3275638790726124 1.4581752112796187 2.936236595526317
Na 2.663217480413442 2.411268778573471 1.3032452696393606
Na 4.941930667477665 3.632902539614985 2.8315211286419757
Na 5.34473719778172 2.7342242070914726 0.001350386727057562
Na 4.170194145727633 0.0 0.33434128112361383
