7
XYZ coordinates of 7 points
Na 4.614067142231727 0.0 1.2553410430206062
Na 4.218288324189379 2.7017633184499825 0.0
Na 6.981664952451919 1.7063382616023102 0.5747098422776609
Na 5.164533627411467 2.493241497872014 2.8277165445986703
Na 2.250437521279068 2.9490345317976674 2.258102421385736
Na 1.6493320324944065 0.049547453239064065 1.7658975853404604
Na 0.0 2.1721369363061207 0.43538084775810576
