7
XYZ coordinates of 7 points
Na 2.8696651943596176 2.2052460361453625 2.87791482243268
Na 3.6433805733607203 2.446408667964493 0.0
Na 5.524042813769711 3.393591302333019 2.1390519628889315
Na 5.040906882778771 0.46128397019389566 1.763484576339624
Na 2.1908547799554423 0.0 0.9647884721567623
Na 0.0 1.6171904003079653 2.228605599694477
Na 1.3308043913133218 4.045267770349658 1.071355924834148
