7
XYZ coordinates of 7 points
Na 2.0362781346614085 1.9487035719271872 0.7648973635394452
Na 4.309202579383712 0.0 0.9768035962333255
Na 5.776371881411059 3.671084267489853 3.710060354596181
Na 4.860992747808986 2.9468249443824863 0.9451612338004307
Na 2.676898711295649 4.772910848625766 0.0
Na 0.6427761185619577 4.224137067614889 2.136710941630289
Na 0.0 1.39602635766285 2.9012659880103016
