7
XYZ coordinates of 7 points
Na 2.3036857572495872 3.8060407343733282 1.6189009341235403
Na 0.7191469431987203 0.0 1.9561304777571236
Na 7.094690880890704 0.9764891959971502 1.7114201916173095
Na 5.100230006695767 3.0774876645030274 1.969085914643944
Na 2.8729082159277297 1.4319125475683014 2.8653177508030048
Na 0.0 2.597592602170509 2.499491947228585
Na 1.6290311725056346 1.6930821998003784 0.0
