7
XYZ coordinates of 7 points
Na 4.778661020990489 0.6854664667252918 1.4460473278852342
Na 5.3599405432649645 3.242685754890318 0.0
Na 6.556716435640478 2.7483790253981053 2.7056139055454533
Na 4.4475122614240465 4.854000136547566 2.355107432342766
Na 1.9349576745815238 0.0 2.083785626230126
Na 2.63573675384327 2.7714904184284257 1.167749948037396
Na 0.0 4.092496736625277 1.7391784705233202
