7
XYZ coordinates of 7 points
Na 2.9538096592842304 0.9354682374132814 1.732381557034353
Na 0.0 1.3965792022398156 1.5077292603754193
Na 1.9175104224268655 3.350997145154428 0.29001836574156026
Na 4.057175700483493 5.404497501257432 0.7523360610666379
Na 6.663826667390348 4.408120530069337 1.8513383083753572
Na 5.8498758848836445 1.5438555130639102 2.2395565406786067
Na 7.118148106413736 0.0 0.0
