7
XYZ coordinates of 7 points
Na 3.908171655170449 2.0760683979587897 0.0
Na 2.3484385989836243 4.274618846021275 1.3178915801805209
Na 5.3422977795081 4.237039756324991 1.5020109567902962
Na 6.768403466644655 1.694566129742312 0.7909019621368345
Na 4.627463768073019 0.0 2.0379784121271385
Na 1.8585264204640053 0.06861109295861512 0.8799966694274333
Na 0.0 2.403434724129813 1.2275107719651202
