7
XYZ coordinates of 7 points
Na 2.4587342997475594 1.9953527000551992 0.0
Na 2.6450777549742894 0.0 1.6286169071387688
Na 0.0 1.065891165930789 1.625190110310624
Na 2.4584513505109418 1.9956386000245532 3.253529988420067
Na 5.012067374984856 1.1890893949938355 1.625035399169453
Na 3.9125988292409044 3.6049208834589668 1.627109905211797
Na 1.1492311500024515 3.6912171991025486 1.6266989438147026
