7
XYZ coordinates of 7 points
Na 4.904921832637298 0.0 0.0
Na 0.0 2.7756312434264925 0.2719547657303927
Na 2.9972579235816106 1.7470961615338334 3.6674738871872385
Na 2.8968133597064876 2.1232414348791293 0.692832470303846
Na 4.383921695826979 4.696209611505962 0.27703819074205194
Na 7.074790777372286 4.207757360474311 1.5058277476825679
Na 7.485718080383782 1.337388400773471 0.7387131920744828
