7
XYZ coordinates of 7 points
Na 2.1190308365289248 3.0030413753067826 0.0
Na 2.0984555468320454 3.091004955598929 2.9965207754045973
Na 4.706665041381201 3.0550879249784666 1.514532896138019
Na 4.719926963914636 0.04937528643599731 1.5522214041522695
Na 2.125708805606679 0.08474105373547114 3.064471203177084
Na 2.112934748585845 0.0 0.06664442200475545
Na 0.0 1.5370441899283065 1.5301945234781997
