7
XYZ coordinates of 7 points
Na 4.622206341619869 3.492271742155923 0.0
Na 8.490261024947332 4.55056904698453 1.7947438628288992
Na 8.891212053255497 0.0 1.7743360121542673
Na 7.270917032708068 2.155066861538484 0.45456262678914616
Na 4.754075406174087 0.5212827299500148 0.31437480492641157
Na 2.9463762584695035 2.132757312366136 2.083541297438713
Na 0.0 2.143642911999879 1.5207355428859448
