7
XYZ coordinates of 7 points
Na 4.49346530997372 3.271695609493744 2.3422609212428434
Na 2.705618650199174 2.7103706672159067 0.0
Na 1.5555495232657823 3.8549024533623464 2.518910707911888
Na 0.0 1.2932405813535697 2.7002922620916348
Na 2.276441289787141 0.0 1.2294245697340709
Na 4.939027552269312 0.3137384350869802 2.580410440051583
Na 7.236989230904972 2.131624536182611 1.966668199260163
