7
XYZ coordinates of 7 points
Na 2.658507392994033 1.5463664072000998 0.4155902555678292
Na 4.333426929777621 2.337938976721716 2.7797360290995092
Na 5.14215900538554 0.0 1.0834841448898689
Na 5.356094729437984 2.7880714817219925 0.0
Na 3.0844473099089074 4.445646319309776 1.04713382083669
Na 0.31307604930747424 3.2915031547260942 1.0894370852761577
Na 0.0 0.3086199818466223 1.0555617741439134
