7
XYZ coordinates of 7 points
Na 2.863136422603421 0.1019570679560422 2.4894135973858225
Na 5.140051043484816 1.8936605080530216 3.293645827838181
Na 7.016477908666353 0.1795519528947771 1.7019218019109874
Na 4.547739473119938 0.1763480008007126 0.0
Na 4.267086464832211 3.09181365721189 0.6791317130786925
Na 1.4624263757261255 2.607076837847283 1.6258671974551284
Na 0.0 0.0 1.631139353765171
