7
XYZ coordinates of 7 points
Na 5.633969850057517 0.0 3.075368171694203
Na 3.8832222151637303 3.5664153098862537 3.8283044287718613
Na 8.434985279465614 0.6621577329022909 2.2689727270545377
Na 6.350080622189814 2.808675869478984 2.2931699378608403
Na 4.455620640071021 2.3845822141250066 0.0
Na 2.9667961067731037 1.1480757279328744 2.2985415570794014
Na 0.0 0.7495109261499386 2.279555712129277
