7
XYZ coordinates of 7 points
Na 8.501814525525827 0.37802298340978235 0.09448067929343101
Na 0.0 0.0 0.06473379116090976
Na 0.7915561070301254 4.422261411511133 0.13239252896299275
Na 2.3573808439747386 1.8597252275850873 0.05656255573465531
Na 5.059932928361375 3.1604435635169534 0.0
Na 8.05398031944712 3.342788301098392 0.03063398757971957
Na 10.843447716985558 2.249067880436982 0.1109700301317801
