7
XYZ coordinates of 7 points
Na 2.407034177354964 1.9253966146017487 0.0
Na 2.395010847341878 1.8061630049301511 3.7101132378988337
Na 0.0 0.7745605567574981 1.8624936934641676
Na 3.7796390114104783 3.232672512079302 1.8978082912544743
Na 1.0152020373326187 3.230187346023981 1.887837128830143
Na 2.4027710119745724 0.0 1.7832072714456526
Na 4.805759704711768 0.7801030505538193 1.8661889693224047
