7
XYZ coordinates of 7 points
Na 3.9688475349456103 2.9618013572636146 2.86275127973093
Na 3.8055419358758398 0.0 3.3119841466046234
Na 6.740941659562996 3.821174327023052 2.1087236935468057
Na 4.854197046520131 2.8326552372396483 0.0
Na 2.4889013744399326 1.2290025077758266 0.9152712428087635
Na 0.0 2.852426716947909 1.3393514075369384
Na 1.6075026168272857 4.817850604495096 2.941334554055252
