7
XYZ coordinates of 7 points
Na 2.4565707894687 3.6139572777245457 1.9808238666878415
Na 2.06786611778608 1.523971649082414 3.7028659718297856
Na 6.423453897899301 1.738595947062517 1.8863099009596989
Na 3.6476543391509795 1.217037283380265 1.5069702136157677
Na 0.0 2.523630382380071 2.2131441911909358
Na 1.5137479640206177 1.9826233370240227 0.0
Na 0.9118586772362404 0.0 1.765856195157701
