7
XYZ coordinates of 7 points
Na 2.9200049061029123 1.7131920643042806 0.0
Na 3.9675170758736344 2.783136132795641 2.5961563636302865
Na 5.8374016013558165 2.354129159813504 0.28836232198781614
Na 4.6707408001986 0.0 1.7315623427454299
Na 1.8672967232797717 0.6386158824914536 2.5957157564061477
Na 1.168108187403593 3.4239662220787945 1.7337055089461852
Na 0.0 1.0712087229900737 0.2857185021325767
