7
XYZ coordinates of 7 points
Na 5.653360970565999 0.878877060294437 0.20585842625138417
Na 8.396696859376746 1.9057987952491828 0.8367829385100434
Na 6.23941189556389 3.8135314846095665 0.0
Na 3.514364398939821 5.030581599597101 0.32168709498260273
Na 0.7085542280638113 4.012233812966639 0.615518541457292
Na 0.0 1.1015691320308203 0.45793006925688196
Na 2.783970663901688 0.0 0.22464719809136546
