7
XYZ coordinates of 7 points
Na 4.287887784579084 2.1507045099282447 0.0
Na 0.0 0.0 2.82910352848834
Na 0.17702587294124128 3.6706631261651133 0.3843997860465447
Na 2.0776154736724597 2.02183264506332 2.029661278495274
Na 4.427764587548721 0.16014931542781974 2.2318108574780533
Na 4.775185626933959 3.0780654968083057 2.804110574802931
Na 2.378200785502241 3.740936499835189 4.473445896547005
