7
XYZ coordinates of 7 points
Na 0.0 3.1179852805175603 0.4329479931601988
Na 2.2348018158710836 4.961652906530617 1.1897177714516285
Na 5.7763717565413355 1.8193209130281014 0.879806030996397
Na 2.7893709542709937 2.0509674920647725 0.7097896329219593
Na 1.266370860332422 2.908713456339403 3.1478912654934286
Na 1.8555114021232137 0.0 2.6895477081156387
Na 0.5403002361107384 0.19813192306028438 0.0
