7
XYZ coordinates of 7 points
Na 2.6296267825991384 3.543827054264654 2.457323582954408
Na 1.8049860043789796 2.030468045106757 0.0
Na 0.0 4.1342881686883715 1.1525418937902414
Na 0.09374519423420669 2.4202779572083837 3.6112113052349915
Na 0.7716589253183334 0.0 1.959897187573912
Na 3.6704459096405637 0.7737663749595197 1.9775404816575133
Na 5.577164299578508 3.076308359774182 2.1774592780197954
