7
XYZ coordinates of 7 points
Na 3.796802591274406 6.0509276030078984 1.1933392845714605
Na 5.412915778001533 0.0 0.9781945102803851
Na 0.0 3.053833967885482 0.0
Na 1.829368087925351 4.007462981763928 2.172851378511325
Na 4.113527958994588 2.11701233167241 2.6551932115861487
Na 6.056666380015892 4.365362043096069 2.2199776096774753
Na 8.216825154118293 4.21548841749488 0.14650544197699755
