7
XYZ coordinates of 7 points
Na 2.6833739416683193 0.0 1.3953793953799127
Na 2.982726256212658 2.9511027819994515 0.8907144241677054
Na 5.821032007231699 2.2023776493711043 0.21120125417012747
Na 5.283325828857366 4.392612590821586 2.168626435352399
Na 3.7071454566234894 5.725950516736797 0.0
Na 1.2578167301358867 5.294340536858817 1.6594899695347642
Na 0.0 2.8522574015812134 0.49422658304900946
