7
XYZ coordinates of 7 points
Na 0.0 4.625063200687702 1.8297219077953204
Na 6.125070789340902 2.2322867394690844 4.4944517828405415
Na 4.541142690389265 2.3094494080336343 0.0
Na 4.8185042950801 4.006192959120471 2.4594970791160966
Na 2.3527940310657467 5.328540102437097 3.5487114674133977
Na 0.881006762278178 2.75182639842708 3.9988875844662273
Na 0.5245351929596866 0.0 2.8580171707285498
