7
XYZ coordinates of 7 points
Na 2.119236477337186 5.220874820806586 0.0
Na 0.5556044955797739 5.267370166631975 2.5590488704722913
Na 6.43057308553879 5.106335612729623 2.023779649984347
Na 3.5132432016825277 4.747591602037643 2.601636330291969
Na 0.0 2.3412050343337825 2.1785216385600377
Na 2.712278574956301 2.4125666261244687 0.8911812610302262
Na 4.208218793907079 0.0 1.8556871173077258
