7
XYZ coordinates of 7 points
Na 1.457977778227332 2.9568121854928053 3.0942948240514365
Na 6.8982410587111875 2.0671352300566097 2.3470390978742226
Na 1.2626755273737396 5.540200085484601 1.5810169807444923
Na 3.6900578560693753 4.7728606004168235 0.0
Na 3.9945932982397636 2.275493400784118 1.6353216146790364
Na 2.572300180088834 0.0 0.2895576868744454
Na 0.0 0.7955145970174947 1.6097082851862956
