7
XYZ coordinates of 7 points
Na 2.807902081239576 4.57739511585007 1.5705677074798072
Na 0.6478078357437664 0.3090699520210819 1.7602967023300495
Na 0.0 3.3029065198489063 1.5365810893990288
Na 2.1161162819261694 2.32322732440559 3.1918266209410966
Na 2.640669832514059 2.169589444911198 0.0
Na 3.7031478165773972 0.0 1.5872323875346952
Na 5.177636163639496 2.6574595425341903 1.9641511894370387
