7
XYZ coordinates of 7 points
Na 4.742243611645584 1.0017510272914272 0.0
Na 4.325854241890182 1.2253971008301354 2.95850812079549
Na 7.094838857207891 0.8502768573500752 1.8595172707826086
Na 5.660284460079822 3.452703124774163 1.460814519504414
Na 2.7277967835744157 2.9442981608639625 1.0868627423161792
Na 2.195769671351533 0.0 1.2364337602108555
Na 0.0 1.9516636260035023 1.8505350299043366
