7
XYZ coordinates of 7 points
Na 2.4541981840133955 1.9016486643586745 0.0
Na 2.459780731271132 0.0 1.9836222245367736
Na 0.0 0.928094903373925 1.9843404341613113
Na 1.1167042734889834 3.309887481841339 1.984334241863261
Na 2.460294806791962 1.9022675414217711 3.967108858132639
Na 3.8001801541620663 3.311294470293214 1.981197994587674
Na 4.91959974751814 0.9293364199789126 1.981135465695592
