7
XYZ coordinates of 7 points
Na 0.0 0.15830715714954774 2.823256702618612
Na 6.077186687485961 0.0 0.30133073108271036
Na 7.610473080094513 1.523389663339703 2.383163936533501
Na 5.1516499426700175 2.721893130747712 1.1545453025081747
Na 2.6056082556815157 4.293875697980645 0.9267416004442299
Na 0.07745318436506476 2.7073170161565545 1.2431613974991371
Na 1.007635345314041 0.13871344386046724 0.0
