7
XYZ coordinates of 7 points
Na 2.450855718943005 1.9787830875080128 0.0
Na 2.4517113453247346 1.9783303691000897 3.574447192341804
Na 0.0 1.9825799306604786 1.7876605797674994
Na 1.8284828804484734 3.9616339982898094 1.7876678813947082
Na 4.325517497049998 3.281426794803709 1.7871128983077353
Na 1.8238350129925522 0.0 1.7871851446392681
Na 4.32289219019024 0.6757484103896755 1.787227165507887
