7
XYZ coordinates of 7 points
Na 4.720454105659391 0.0 1.8212287531452418
Na 0.014511245274783091 3.6312808237512755 1.9912275571749753
Na 0.0 0.6353704290074693 2.034091204426431
Na 2.6090598983447997 2.120270316721644 1.976524808383178
Na 4.8512449259932495 2.381457101188701 0.0
Na 4.654561036858725 4.2873338792520554 2.3067051565408674
Na 4.679061298988981 1.908494217680898 4.137937963058439
