7
XYZ coordinates of 7 points
Na 2.4191580639878487 4.52273150052088 1.7876967448332288
Na 5.069094387598117 3.4180455782417547 2.670701304685847
Na 4.819401432758366 4.741388414498431 0.0
Na 5.226663638773797 1.7728895068904467 0.1647699414074037
Na 2.870871123141715 0.0 0.7347654187016509
Na 0.9411920833990801 1.9176468953381205 2.0033783221473627
Na 0.0 4.02073008676011 0.08878258903069325
