7
XYZ coordinates of 7 points
Na 2.4083359583030606 1.5276527749828661 3.1419446119167964
Na 2.8792347412406407 3.386074218172937 1.1483889470684412
Na 0.5710367418027903 2.3538689443499274 0.0
Na 0.11062778323474765 3.021360345828092 2.662479952323892
Na 0.0 0.0 1.9664502470952745
Na 2.7673479801946375 0.2973007878387811 0.6477853375246572
Na 5.040487137671804 1.5967801121901362 1.910236255895516
