7
XYZ coordinates of 7 points
Na 1.549230015297564 1.7219729729666715 2.510428350365873
Na 5.837322269032084 3.5186934388489903 0.9560367305096438
Na 0.0 4.1577000485358955 1.6846587379790823
Na 2.9946948251813965 4.195096408911647 1.623854904975619
Na 3.973362677419706 0.0 2.946323879930645
Na 3.6522325673574283 1.5398455614849595 0.39088641985335687
Na 1.0069514965652795 0.16874905996656464 0.0
