7
XYZ coordinates of 7 points
Na 2.9224035475151853 1.475773612964004 3.2581103573731713
Na 1.905722753101231 2.9929683775723537 0.8667605516601814
Na 0.0 1.4845547761148121 2.612788494102428
Na 1.9026309902046266 0.01846641708623742 0.8322038865876511
Na 4.3781384496956965 1.514696338318883 0.0
Na 5.3937540422052415 2.976113656514706 2.4262378166792375
Na 5.399207894368427 0.0 2.3929760385522436
