7
XYZ coordinates of 7 points
Na 2.381636334364 4.0909955591257665 1.8497842221785448
Na 2.9014738678521095 2.095502895693217 0.0
Na 7.081002796710545 2.1148149347592513 1.4382542012074966
Na 4.354511850721721 1.7225372680236721 2.3182761331163695
Na 1.5927745754585718 1.9601925890606142 3.450275965151144
Na 1.8858410865544968 0.0 1.4997376939983478
Na 0.0 2.3718250255553004 0.8838358535318729
