7
XYZ coordinates of 7 points
Na 2.78123309382484 1.8784314302950773 0.0
Na 2.7816638743794715 1.877865041111177 3.4092174792842345
Na 4.7527381663923975 0.4236026140006459 1.7040567167824294
Na 4.81316995924954 3.221630159476505 1.7039922273287411
Na 2.1206561454662083 3.949929336848781 1.7052721550330228
Na 1.6833789231997387 0.0 1.7047482173738207
Na 0.0 2.0859014235698954 1.703785700240473
