7
XYZ coordinates of 7 points
Na 2.1851483369713356 1.6759083610399017 0.0
Na 2.172139686851775 3.6125147398878688 1.669383206466718
Na 0.0 2.3210961235643937 1.6729422268311676
Na 3.4539109748064383 0.08408134706761172 1.6722470004951788
Na 2.1828773682076115 1.6750262601649344 3.3417033444092894
Na 1.020295861728852 0.0 1.6684731857382036
Na 4.3682912827048215 2.364137980738759 1.6726013418180465
