7
XYZ coordinates of 7 points
Na 2.3354411582387593 1.223797391400901 1.3895700134284337
Na 2.7436975346405723 3.771209894557816 2.920350848179647
Na 0.0 3.006529102562031 1.9862571050952331
Na 2.077676486027018 3.867284130681138 0.0
Na 5.062656312088817 0.0 1.6427559654778534
Na 4.775172252769604 2.893430172769978 0.8923546482513962
Na 7.3223954992984535 4.215963577854749 1.7780828257053856
