7
XYZ coordinates of 7 points
Na 2.5852976700364128 2.3534776324689917 3.1330239993913556
Na 2.5800688563105862 0.0 1.4001140073065104
Na 5.164335076594002 1.5427395842741372 1.9771707009561026
Na 4.126625725027354 4.4163145413991 1.743991866133933
Na 2.584603362414537 2.609045948815738 0.0
Na 1.054217717397291 4.423454152096881 1.7433651597560829
Na 0.0 1.5533882535648382 1.9781162521960773
