7
XYZ coordinates of 7 points
Na 7.154936046330911 0.0 0.7196912669379525
Na 4.7162860208713475 1.1750398952265189 2.0058108766001563
Na 6.924960178292336 5.766250530541053 1.7382552705787777
Na 5.3080309584629966 3.802260917201041 3.324792960543064
Na 2.2091548722392425 5.033684490604212 0.0
Na 2.5315626003000684 3.2027967090597467 2.357748045046651
Na 0.0 1.6192775026904689 2.0515098643218437
