7
XYZ coordinates of 7 points
Na 2.7278867087079437 2.0369382646869516 3.070668525782695
Na 2.7016843317922277 1.855951254727041 0.0
Na 6.6207659492276365 1.359946684442663 1.5609441703468374
Na 4.635653338136159 3.4582586547483785 1.4300333909428202
Na 1.8374933145767458 4.1695049373815465 1.6557216780915067
Na 1.5845493843897422 0.0 1.7021247408121654
Na 0.0 2.1816103806516205 1.3999592926095374
