7
XYZ coordinates of 7 points
Na 2.0331617307486636 1.8066743820961415 0.0
Na 0.0 2.202511910538403 1.681235283738828
Na 1.7819907428367041 3.856373378580333 1.6826925521482594
Na 1.0280264112182025 0.0 1.6812016599752924
Na 3.9035237484008203 2.675842822519365 1.6850159002282077
Na 3.4371405114963527 0.2952733003060031 1.6852558583303492
Na 2.025784548956974 1.8065182282707002 3.3650111427495766
