7
XYZ coordinates of 7 points
Na 2.8941896370095366 4.7113600660000445 0.22991173261436987
Na 5.720130897249188 4.247911395244049 3.5551892325364607
Na 0.0 1.026414698938285 2.3199691665361373
Na 2.061459343502279 1.836356839542393 0.30152285405996326
Na 4.819892692254404 2.6192517739330916 1.196185586315013
Na 5.956606043168639 0.0 2.1249162321644355
Na 7.364554369916325 1.5721329080483808 0.0
