7
XYZ coordinates of 7 points
Na 4.865507337481355 0.0 1.6925374423023587
Na 2.14229347960166 0.3989273485319891 1.7266840009025972
Na 0.0 2.2649168120825074 1.7040726871337815
Na 2.570250437637628 3.4701938945562327 1.7315039647820138
Na 5.402775282995666 3.654295470166756 1.6982815784715752
Na 4.032280907953375 1.8377703596671706 0.0
Na 4.073104617717551 1.8264215053155213 3.416918892471093
