7
XYZ coordinates of 7 points
Na 2.7798889249409315 3.3966377194402595 1.0315267467254339
Na 2.7673192058339398 0.5762276997900122 0.0
Na 0.0 3.920549916139745 2.022455732004963
Na 1.2818504407233045 1.2572749021302951 2.506689554696403
Na 4.000815077097169 0.0 2.6739315202945937
Na 5.197275992832747 2.7579498778243714 2.7022706984330602
Na 7.911291798926237 3.0596697919158986 1.4646711809492219
