7
XYZ coordinates of 7 points
Na 0.21661113305230417 1.2873401162744282 0.0
Na 4.585736426419471 0.0 1.3908362732897128
Na 6.887492798506303 1.898927321706926 1.7148407863767745
Na 4.928730087306122 4.1537492127456215 1.4070378823955751
Na 2.602825133142576 2.253563969784923 1.53737396530847
Na 0.2784355778273272 1.0284874999451317 2.984115786500773
Na 0.0 3.730716020848003 1.7194218389785791
