7
XYZ coordinates of 7 points
Na 0.19451099939451644 4.0469210140108896 0.9345957082766826
Na 3.989986330572024 4.488143137515869 2.519577835150077
Na 7.111510531677679 1.8383507265701753 0.30868091534825354
Na 4.921540142668505 0.45328977089844724 1.809281709272526
Na 2.4535271330726522 2.1347929583858605 1.4531087172495516
Na 0.0 1.2119476082756178 0.0
Na 0.7073008594517618 0.0 2.6450206939852556
