7
XYZ coordinates of 7 points
Na 4.356506626627793 3.0230715571558537 1.5964012101603222
Na 1.2668389683423777 0.0 1.5967475877319988
Na 3.841935593133916 0.32673198532682246 1.5953395463873439
Na 0.0 2.2641699121555336 1.5955423868540315
Na 2.225083041305093 2.0391754890471776 3.1918732626450987
Na 2.225112313771941 2.039255187035613 0.0
Na 1.842309194474883 4.113304616695698 1.5961099026415195
