7
XYZ coordinates of 7 points
Na 2.0860508889056524 1.534382945991081 3.0808092212175824
Na 2.650900135870634 4.015142176625668 2.2189861956135974
Na 4.703595726171329 2.7578167931954862 1.0240520282036032
Na 2.1433781518141046 2.460117020805078 0.0
Na 0.0 2.6249475172213956 1.6927454508582689
Na 1.313753957112465 0.0 0.929432599871267
Na 4.056257084718194 0.2124058292910418 2.0317275695274795
