7
XYZ coordinates of 7 points
Na 3.819186680451058 2.4685780936472197 0.0
Na 3.48568357732011 4.276374077108671 2.369551108396657
Na 1.1791996687735244 3.8019961619299325 0.5144201089706878
Na 0.0 1.1511173968906878 1.284899639012708
Na 2.7743269874232173 0.0 1.3549019560152913
Na 4.9071005052647365 1.653909821109193 2.6642255168728974
Na 6.758374746149917 1.9498311862794218 0.32027872808975044
