7
XYZ coordinates of 7 points
Na 4.857571119621506 2.563725430595471 3.1799830706407164
Na 4.657379657980248 0.0 1.642946733094693
Na 7.584741037863034 3.8144287646559794 2.9965417510109758
Na 7.4347057396500125 3.724127166821603 0.0
Na 4.649713535977236 2.6228118382214163 0.18860175096877335
Na 2.82761661904009 4.328017796572157 1.8521174938363751
Na 0.0 3.3938375576023665 1.4977045380473955
