7
XYZ coordinates of 7 points
Na 2.4362993570382647 1.0945924146919865 0.05764762114799693
Na 4.250107291702729 0.0 2.16911685833494
Na 5.371844318604953 1.7435543734406211 0.0
Na 5.193463967728555 3.9289315931754327 2.054708135836073
Na 2.6368528701965657 2.483023475713095 2.704590101945158
Na 1.1836454242004542 3.7915591288081485 0.4281387212209989
Na 0.0 1.3996298181108169 1.7771418966081654
