7
XYZ coordinates of 7 points
Na 1.0899661432180905 2.664211353637295 1.6664765799651722
Na 5.926406465078936 0.003960923637589542 0.0
Na 7.990633570712825 0.17276445998368123 2.1704412035413485
Na 6.8623833054667704 2.679463772885764 0.9699294662653493
Na 3.9615071449147194 1.9360340679639374 1.191582129204848
Na 2.119524236025674 0.0 2.563986421202861
Na 0.0 0.14827895342589215 0.44616645940179867
