7
XYZ coordinates of 7 points
Na 4.646353662591936 3.4388073154320957 1.8729228270566352
Na 0.040948478656813725 0.0 1.8412504005995234
Na 0.0 4.747877612076632 1.3492948193861718
Na 1.8221028817855986 2.4168735109055035 1.849696482941425
Na 3.8696324064094796 1.2341647693372781 0.0
Na 5.979454223006019 0.7633585724013905 2.081408932540232
Na 7.611615828490176 3.2068186408535273 1.482201103300536
