7
XYZ coordinates of 7 points
Na 6.441510564067156 0.25469814088389386 2.013318323121364
Na 3.9179491941617215 1.8739718754191221 2.0326668953958267
Na 5.035212258275272 4.599200374410457 1.47547207776437
Na 2.2147062959126735 4.3169150436117585 2.4390225216354766
Na 0.0 2.339184938873056 1.9825711716815537
Na 1.8582329296359072 1.061620491969191 0.0
Na 1.6958762683609292 0.0 2.789011168515762
