7
XYZ coordinates of 7 points
Na 2.082495498240168 1.5946065719062084 3.6131697322764516
Na 3.6046910646344434 3.884276892778639 2.413201214157346
Na 4.15751624451207 0.0 2.140087167862421
Na 3.6391848097346653 2.0649500672742587 0.02613942177010342
Na 0.620914978563426 3.9094971264792777 2.3811384661813952
Na 0.6350600846754373 2.0805908559305153 0.0
Na 0.0 0.04158878572031621 2.1034639949036635
