7
XYZ coordinates of 7 points
Na 2.7525788785139804 2.3434598967023366 0.0
Na 1.9254437012146193 0.0 1.4913762106440245
Na 4.888035902931975 0.8121246056836574 1.259419074302798
Na 4.882576069456146 3.880367068280926 1.259559593370862
Na 2.496418272109869 2.346462019776694 3.170186678495539
Na 1.9208606217785753 4.686961550407835 1.4887625633121644
Na 0.0 2.3406615896031213 0.959676561557896
