7
XYZ coordinates of 7 points
Na 4.754343147256958 0.16950887313503388 4.251762716258321
Na 5.207948839446967 0.7921311275042973 0.0
Na 0.0 0.20877305473093416 2.1486829086857124
Na 2.9729772432752926 0.0 1.841697031929471
Na 7.0231702194100025 0.7973883701583164 2.390105822872614
Na 4.549930271668861 2.497888317390859 2.373213393346163
Na 3.1124649874752968 5.130773628168624 2.3475211339249817
