7
XYZ coordinates of 7 points
Na 0.0 1.3791063803606796 2.299195662261293
Na 2.7882129902330552 1.7565623462873445 2.4017431271316885
Na 3.602260282121126 1.0621371117454905 0.0
Na 4.945599153203736 2.3611991490463478 3.7685325762726603
Na 3.119353009178684 4.410592427912547 1.4672791894733956
Na 5.443896727045904 2.817285553727313 1.2130393345042607
Na 5.231492897735545 0.0 2.1410069626151094
