7
XYZ coordinates of 7 points
Na 5.44331394218168 2.548849228662662 2.3942458637579143
Na 3.811290442230457 0.2418743073319739 3.4015381368116544
Na 7.2162847762184965 2.1773433001770703 0.0
Na 5.3268583632133915 0.0 0.8273296334918014
Na 3.3141659854906416 4.607201682328563 1.9085443756451042
Na 2.910733336505799 1.77765936727871 0.9874820738706945
Na 0.0 1.3747009487296482 0.3737282323552098
