7
XYZ coordinates of 7 points
Na 2.099656915059324 4.169988574316696 2.3905109106218743
Na 4.117601947493837 4.3847910766164375 4.592183622398724
Na 0.0 2.0408628334643275 2.667184393311478
Na 2.1855117860052724 0.0 2.9254721176134395
Na 3.7794485738099732 3.497433915407212 0.0
Na 4.284938995459199 2.130160964355766 2.621008128663653
Na 7.216752449050139 1.4957222103601384 2.5729676463040567
