7
XYZ coordinates of 7 points
Na 2.7070340899155725 3.533431070666036 1.268650305492079
Na 2.34768149857173 1.0827327067104298 2.9669049741273663
Na 4.923344757586759 1.794405353721285 1.8832597825863158
Na 2.8441623310502298 0.5923926554689004 0.29481163294136037
Na 0.14579186851306014 0.0 1.7008030899948614
Na 0.0 2.940755208220556 2.671831842014938
Na 0.5033943506997798 2.4557252269242946 0.0
