7
XYZ coordinates of 7 points
Na 2.406081661731511 2.700186502794184 2.759140986679544
Na 5.160397867602843 2.332261024588523 2.7411029891825907
Na 0.0 2.4949884527287542 1.1500614583297442
Na 2.6596950590371238 2.4208981130300846 0.0
Na 4.424721055985047 4.526790360227128 1.2185333367389513
Na 5.379759167146992 1.8033671842631631 0.022216769191704455
Na 3.4922902156048097 0.0 1.6848095944625314
