7
XYZ coordinates of 7 points
Na 1.9056949736044682 1.2141115692793412 2.1197165357781005
Na 0.0 2.146093998682082 0.0
Na 3.331360327823558 5.538337883180164 3.1611251116788175
Na 2.260574621020174 3.9150746119012654 0.8756348042578239
Na 4.515116156994779 0.0 2.963361190338543
Na 4.41412766253401 1.8396643417779637 0.5963314784268152
Na 7.08448926895422 3.08186933734839 0.01941069601959372
