7
XYZ coordinates of 7 points
Na 2.5702772374478604 0.9636197263229804 2.7568574112456234
Na 4.3138071164560685 2.677548425109639 0.9539429365927454
Na 5.270426768353915 0.23047266505468916 2.109872026660435
Na 3.3294870834085843 0.15880134578887733 0.0
Na 2.0575396161889565 3.5715971569121225 2.119019805042989
Na 1.292282010686949 1.9064230773308755 0.16332343025557522
Na 0.0 0.0 1.8919705040682393
