7
XYZ coordinates of 7 points
Na 2.536440294160606 0.0 1.8765230897004261
Na 2.539260560835985 3.0849099979602763 1.9075873625298447
Na 4.615776679432307 1.538950643720451 1.990485680505232
Na 1.5547980535755537 1.5626219162006918 0.0
Na 0.002954104718696615 2.8582856894460544 2.156695674394534
Na 1.9096777960273963 1.5219574497018828 3.9741586475591477
Na 0.0 0.2220935394709631 2.131311199823849
