7
XYZ coordinates of 7 points
Na 2.7935000018280385 2.1593850427255266 2.7495804702129725
Na 4.087366168976562 4.468714360153072 1.7703126744000084
Na 0.0 2.3265833911083247 1.8217000832172086
Na 2.3007679469171736 2.561653411880886 0.0
Na 5.138977392201797 2.5306936678643788 0.009694245316562322
Na 3.6986788463128395 0.0 1.1385030380192798
Na 5.6070183420979 1.8885344201257634 2.7339872046783915
