7
XYZ coordinates of 7 points
Na 2.4624734794595127 1.5337060130325524 0.0
Na 2.4478556710629564 0.10328231631930618 2.6327732006177644
Na 0.02679772161824978 0.01795242818231424 0.8653264207916601
Na 0.0 3.0179754203615836 0.8450274125924886
Na 2.475865739488984 3.109443501864877 2.5448240627789085
Na 4.941795812240759 3.000198877682657 0.8323128448485511
Na 4.884591719070762 0.0 0.8801729179851576
