7
XYZ coordinates of 7 points
Na 3.9041840796498946 0.0 1.4621225683037329
Na 8.092108485721429 6.893039060421325 0.8440572465990185
Na 7.9025331590732515 4.142973488282282 2.024366304404861
Na 6.472580960299732 1.5503020247619244 1.5447060228969802
Na 4.128658983284112 2.607877424234878 0.0
Na 2.716795557674318 4.616431203628759 1.728229223509048
Na 0.0 5.870255339853942 1.5065878244672046
