7
XYZ coordinates of 7 points
Na 2.0031938565016567 3.867713716787769 1.2780940610535672
Na 1.2080407454808233 0.0 1.1399534191554728
Na 0.0 2.315733519428485 2.018121393975209
Na 2.6793804939284973 1.7089730664694425 0.0
Na 2.7346828730596755 2.314280781301786 3.2981749121574624
Na 4.769189240666201 2.745866248375237 1.291121213244401
Na 3.8478041679798194 0.11079838325149405 2.2511171656340054
