7
XYZ coordinates of 7 points
Na 2.6562014275287305 0.0 2.5821467293427416
Na 4.130366871512811 0.37210083956541884 0.0
Na 7.685030791166408 2.674168537482803 1.855342062154023
Na 4.786940779403944 2.0994738795796675 2.3620555910326195
Na 3.2527094258030846 4.663822126508086 2.046662740269356
Na 0.6428720115465879 3.873070271074426 0.7962217719631084
Na 0.0 1.372390000992331 2.3274511983788937
