7
XYZ coordinates of 7 points
Na 1.9776281072029622 2.0288043669207134 0.0
Na 1.4793607258960524 4.347484936365747 1.5163100627541348
Na 7.074863637615346 2.261396738890813 1.8142851389225187
Na 4.179608540037785 2.7300822905230007 1.6192997987562752
Na 2.1378609688109007 2.5427383381185042 3.579201140669668
Na 2.6757786652347937 0.0 1.853145190012988
Na 0.0 1.6093325158472733 1.9712052052077769
