7
XYZ coordinates of 7 points
Na 2.7694380787254214 2.9477797181269265 2.1492564133295735
Na 1.7343103338170796 1.524363256661842 0.0
Na 5.540097539200231 2.081051309898567 2.098812683946388
Na 3.5223324712445723 0.0 2.0271534370202047
Na 0.0 3.021501873208777 2.124747112225055
Na 1.6913334485147824 1.3397529300516595 4.141948019899323
Na 0.46246978614739154 0.05153697596594908 1.9963934073305292
