7
XYZ coordinates of 7 points
Na 2.9045768501871945 2.4151098102034085 1.8896648579379707
Na 5.029427190059079 4.156878678596588 3.0991657772078547
Na 4.154853189504815 0.0 0.6222001966208985
Na 5.605237000300261 2.621190065553309 0.5973836515696878
Na 4.838452444449683 5.522217286663524 0.43346640300446143
Na 2.0161827960436387 4.576748132082601 0.0
Na 0.0 3.1091661374236432 1.6577941011827315
