7
XYZ coordinates of 7 points
Na 2.384675841101671 2.5658496623498976 0.15758176009215252
Na 5.903141602227516 4.908758156970192 1.10680841260103
Na 0.0 1.1713018244787607 1.3205016731481942
Na 2.327929385344468 1.8873141653380983 3.071562952870887
Na 4.956749768335437 2.108017992680219 1.6382041668257052
Na 7.592893749682202 0.9864444457793665 2.5335376045387776
Na 6.333207561234188 0.0 0.0
