7
XYZ coordinates of 7 points
Na 2.678427157742183 2.1093865771965197 0.1622989938390224
Na 3.635467447460284 0.0 2.030360965069497
Na 0.0 2.0986932916858523 1.1962952503739661
Na 2.2874462626525833 2.656924197997779 2.8355232243781945
Na 5.204971655870034 2.090608990641567 2.9170105283745205
Na 4.473243818954 4.192546456838823 1.2854330866699049
Na 5.3751672245188455 1.536942446140435 0.0
