7
XYZ coordinates of 7 points
Na 2.7486353193494626 0.6867372956259397 0.14005261526160884
Na 3.3290675637839344 1.0914470355761325 3.0563258717101798
Na 5.565499033513166 1.1263338171445128 1.062694434170802
Na 3.598445036719745 3.3843810696224708 1.1603741961807597
Na 1.0102302926185416 2.954362235419497 2.629964424482026
Na 0.6777104001546025 0.0 2.205249859760073
Na 0.0 1.9011077965558394 0.0
