7
XYZ coordinates of 7 points
Na 2.880301249463251 2.53344167566518 0.0
Na 3.1564783186957395 0.0 1.6037466851539728
Na 5.875470844999084 2.7096428135825774 0.11247074576908139
Na 4.231832363318424 3.8553615093458844 2.3349818351946316
Na 1.638509258161245 2.3621726478634715 2.6853067438162745
Na 0.76835376648061 4.525758824140498 0.7906219437107453
Na 0.0 1.7035023845993802 0.2504525639276974
