7
XYZ coordinates of 7 points
Na 0.8706010201982446 5.200493668645338 1.350939237726267
Na 7.129579893186904 0.0 1.0307379587927141
Na 7.462864172343531 4.831524065122096 0.0
Na 7.2163425672435455 2.773910801501192 2.1689128697791418
Na 4.48032467085933 3.0776267662670276 3.361889756994745
Na 2.229680719598691 2.528433501898069 1.4528462764998804
Na 0.0 0.6492738705707581 0.7521852762735155
