7
XYZ coordinates of 7 points
Na 0.32861376535555487 2.4064144146988413 2.8585642354324494
Na 0.0 4.9994447804243105 1.3869950780305256
Na 1.4335976267236044 0.0 1.4437180857776912
Na 1.1872770869680227 2.6188748223495746 0.0
Na 2.7422589015940098 4.044535296485364 2.1348072987446733
Na 5.619161100355065 4.061750547825824 1.2726515771973892
Na 8.021646501618314 2.330717158880108 1.7317603602938738
