7
XYZ coordinates of 7 points
Na 1.9586844563729846 1.889181835429341 2.6821718993190986
Na 3.923311281265639 0.0 2.264242002561323
Na 0.0 0.5560494714333553 0.9690814518535544
Na 2.5168766127266835 1.683977856475047 0.0
Na 5.232451502650453 1.2834851032649865 0.20829377451394354
Na 4.371461764909597 3.0919789202852015 2.10535535958737
Na 1.94017862629445 4.336571038079832 1.0843022463762646
