7
XYZ coordinates of 7 points
Na 4.629439329737223 0.0 2.1621918042245953
Na 6.93348735864169 1.7991367682827768 2.8473731163278773
Na 6.439322057829185 1.0250478316223637 0.0
Na 6.006380509192533 3.8611953088428117 0.8733885168833828
Na 3.29905729443786 4.529617227407185 1.977022537433812
Na 2.273178154192979 1.7934867787038598 2.6670600380061
Na 0.0 1.4944614896726576 0.7329508516065977
