7
XYZ coordinates of 7 points
Na 4.076035921073422 2.6388987662705072 1.044730795218384
Na 1.5775024341494222 0.03243724468131848 2.7577807998990993
Na 1.444856032908525 3.0188216108662855 2.451805103521122
Na 0.0 1.238277256577466 0.5170289335626044
Na 2.7468406400366723 0.15152218834900127 0.0
Na 4.553814239171113 0.0 2.3836713901523914
Na 6.860514054069327 1.5475653825444586 1.2550120343760165
