7
XYZ coordinates of 7 points
Na 1.8678201305153308 4.0453785791757895 1.9158680503482914
Na 2.7611576965718725 1.8972549208658598 3.435371566309574
Na 6.954415384677014 1.9092368763465881 1.8951032134123693
Na 4.3100222300011195 2.466806854932436 0.8711650664887333
Na 2.5317175654388286 0.0 1.4144180267020183
Na 1.4084277566427745 2.099663218320352 0.0
Na 0.0 1.5796762869271392 2.319378974927253
