7
XYZ coordinates of 7 points
Na 5.318115594051933 0.31337656282698895 2.9805299688044586
Na 5.1370688377207365 0.4709797893977833 0.0
Na 7.789611270372952 0.0 1.3139157977417595
Na 6.467663872372523 2.6795165839908885 1.5389419813945264
Na 3.8218953650756626 4.099905516916497 1.4262486337217624
Na 2.7882365211089675 1.2877856296143726 1.68658820100559
Na 0.0 0.23881124602498144 1.3769458069429843
