7
XYZ coordinates of 7 points
Na 2.7210822497237386 1.1280441376599302 2.988178189765788
Na 3.0243432628946545 1.2482276597505428 0.0
Na 5.337254205046774 0.43047577386675523 1.7132267766746887
Na 4.388900735953771 3.269327465024779 1.736495698445143
Na 1.557091712540256 3.8601849940179758 2.5293048999601284
Na 0.20821624995691979 2.2333333724381585 0.38767006771343293
Na 0.0 0.0 2.3878320036304173
