7
XYZ coordinates of 7 points
Na 4.054234910779755 3.726213129513988 2.9039423325391143
Na 0.0 4.583690103273127 1.2370183412470617
Na 0.37060619406032347 0.0 1.9275333442692015
Na 2.025848586273482 2.374501526530385 1.142219561177621
Na 4.510097104808608 1.1262358344709222 0.0
Na 6.050871466624946 3.6139699398834946 0.6658228649630678
Na 5.901693399681134 1.3793815305615902 2.6450577659151047
