7
XYZ coordinates of 7 points
Na 4.187445131639744 0.0 1.0419429942380989
Na 4.310733482895984 1.3151290129046163 3.736368676102357
Na 6.968528122696271 0.4124523929514795 0.0
Na 7.188197090720161 3.3943860407515105 0.2022593822242667
Na 4.915008373744614 3.7738086522981473 2.1227844001658953
Na 2.94646260092311 2.5961520993928366 0.18168564042706875
Na 0.0 2.0740498861096555 0.259956491432777
