7
XYZ coordinates of 7 points
Na 1.2382627528371701 3.835296509172547 2.855261289173037
Na 6.66943199131377 4.124198811427781 0.587184703731904
Na 7.906066859438397 0.011892144939897653 3.090998838932668
Na 5.862183664298595 1.3351852274012208 1.3393913604621162
Na 2.971256562060568 1.4951215559911957 2.135182517999423
Na 0.0 1.1523228685856024 2.3389359815688158
Na 1.480479857052167 0.0 0.0
