7
XYZ coordinates of 7 points
Na 2.489071979579046 2.372917791758649 3.1245800115692246
Na 2.6470737082260616 0.0 1.2924639718136928
Na 5.180949401988652 1.1262121183354419 0.15271793639011516
Na 4.536196306477164 3.763740787787599 1.4245578550516318
Na 2.300716115142761 5.1663988621091 0.0
Na 0.27147122095914766 3.493821611441338 1.4413942583541135
Na 0.0 0.8078220027999953 0.1337783741975268
