7
XYZ coordinates of 7 points
Na 4.537362175075295 0.663305647736556 2.2553481279265974
Na 7.3239582420642515 0.0 1.3547571718594755
Na 8.308050179194971 2.4896653218143374 0.0
Na 7.141835143762318 4.813139088826658 1.4934615157660012
Na 4.508730741365717 3.663759011030263 2.3532497544566837
Na 2.9388287366764727 2.2147795684635634 0.24823481621369187
Na 0.0 2.487183043479997 0.7857228765071425
