7
XYZ coordinates of 7 points
Na 0.055825463941155506 0.0 2.0264868428657117
Na 4.375979887273736 0.17864659196129273 2.1507346272495855
Na 6.117407983281659 2.1925799589165926 0.7713876013635315
Na 4.318208633948116 4.213079787178265 2.061274378851285
Na 2.1229963700126375 2.1640132133985386 2.250517926853095
Na 0.14717358802180125 2.201350232852078 0.0
Na 0.0 4.288208071385496 2.14476781324503
