7
XYZ coordinates of 7 points
Na 3.944522032879757 3.456214637191831 2.8049094225117637
Na 2.3538947645774986 4.548014912047858 0.5107957929140301
Na 0.0 2.97645738366065 1.509036560233824
Na 1.980296333452965 1.1790165263221017 2.8694176495470236
Na 3.29065825060604 0.0 0.4388864168623568
Na 4.624122259525314 2.6530575807838197 0.0
Na 6.770044671767604 2.7659284278045155 2.0884110953601835
