7
XYZ coordinates of 7 points
Na 2.7710425598050064 3.7573342822109512 2.1554654667324566
Na 5.602421043242758 2.997483547578319 2.778463294520408
Na 4.858729996513701 3.836631838797909 0.0
Na 3.913011038341905 1.1996694879776504 1.073399689563728
Na 1.1585860478985028 0.0 1.11289708013131
Na 0.0 2.611591895830457 2.030690299629739
Na 0.5013119156098719 5.422241952534374 1.1190191419386344
