7
XYZ coordinates of 7 points
Na 3.001841676270004 2.9657543286188015 1.0949447020501504
Na 7.386520874621958 3.0100086219315942 0.0
Na 8.198575560106876 0.2966501549940514 0.9828161865914072
Na 5.487334272851964 1.3857398032159458 1.6593088044569273
Na 3.0297953963426427 0.0 0.6467312791274775
Na 0.03828874183855868 0.007829977720267944 0.4066593394699639
Na 0.0 2.952420758611182 0.9928737814092066
