7
XYZ coordinates of 7 points
Na 2.5519629143074614 2.410354482845681 2.58594097109647
Na 0.9213151588695631 0.0 1.8241792449034988
Na 0.0 3.969774039746213 2.311992047877133
Na 1.0523657868846332 2.3739665616527112 0.0
Na 4.189877702411953 4.818221953807484 1.827420027384538
Na 4.056196807574196 2.444640607947384 0.0032121394718833685
Na 5.096254231117218 0.8378567829012507 2.312349477458976
